                                  MODFLOW-2005     
      U.S. GEOLOGICAL SURVEY MODULAR FINITE-DIFFERENCE GROUND-WATER FLOW MODEL
                            VERSION 1.12.00 2/3/2017

 LIST FILE: Calibration.out
                         UNIT    2

 OPENING CONV_MF2K.ba6
 FILE TYPE:BAS6   UNIT    1   STATUS:OLD    
 FORMAT:FORMATTED              ACCESS:SEQUENTIAL          

 OPENING CONV_MF2K.bc6
 FILE TYPE:BCF6   UNIT   11   STATUS:OLD    
 FORMAT:FORMATTED              ACCESS:SEQUENTIAL          

 OPENING Calibration.wel
 FILE TYPE:WEL   UNIT   12   STATUS:OLD    
 FORMAT:FORMATTED              ACCESS:SEQUENTIAL          

 OPENING Calibration.drn
 FILE TYPE:DRN   UNIT   13   STATUS:OLD    
 FORMAT:FORMATTED              ACCESS:SEQUENTIAL          

 OPENING Calibration.riv
 FILE TYPE:RIV   UNIT   78   STATUS:OLD    
 FORMAT:FORMATTED              ACCESS:SEQUENTIAL          

 OPENING Calibration.evt
 FILE TYPE:EVT   UNIT   20   STATUS:OLD    
 FORMAT:FORMATTED              ACCESS:SEQUENTIAL          

 OPENING Calibration.ghb
 FILE TYPE:GHB   UNIT   37   STATUS:OLD    
 FORMAT:FORMATTED              ACCESS:SEQUENTIAL          

 OPENING Calibration.rch
 FILE TYPE:RCH   UNIT   18   STATUS:OLD    
 FORMAT:FORMATTED              ACCESS:SEQUENTIAL          

 OPENING Calibration.oc
 FILE TYPE:OC   UNIT   22   STATUS:OLD    
 FORMAT:FORMATTED              ACCESS:SEQUENTIAL          

 OPENING Calibration.sip
 FILE TYPE:SIP   UNIT   19   STATUS:OLD    
 FORMAT:FORMATTED              ACCESS:SEQUENTIAL          

 OPENING Calibration.sfr
 FILE TYPE:SFR   UNIT   81   STATUS:OLD    
 FORMAT:FORMATTED              ACCESS:SEQUENTIAL          

 OPENING Calibration.cbb
 FILE TYPE:DATA(BINARY)   UNIT   50   STATUS:UNKNOWN
 FORMAT:BINARY                 ACCESS:SEQUENTIAL          

 OPENING Calibration.cbw
 FILE TYPE:DATA(BINARY)   UNIT   54   STATUS:UNKNOWN
 FORMAT:BINARY                 ACCESS:SEQUENTIAL          

 OPENING Calibration.crc
 FILE TYPE:DATA(BINARY)   UNIT   51   STATUS:UNKNOWN
 FORMAT:BINARY                 ACCESS:SEQUENTIAL          

 OPENING Calibration.hds
 FILE TYPE:DATA(BINARY)   UNIT   30   STATUS:UNKNOWN
 FORMAT:BINARY                 ACCESS:SEQUENTIAL          

 OPENING Calibration.ddn
 FILE TYPE:DATA(BINARY)   UNIT   31   STATUS:UNKNOWN
 FORMAT:BINARY                 ACCESS:SEQUENTIAL          

 OPENING CONV_MF2K.dis
 FILE TYPE:DIS   UNIT   10   STATUS:OLD    
 FORMAT:FORMATTED              ACCESS:SEQUENTIAL          

 BAS -- BASIC PACKAGE, VERSION 7, 5/2/2005 INPUT READ FROM UNIT    1
 
 MODFLOW was compiled using mixed precision
 Precision of REAL variables:           6
 Precision of DOUBLE PRECISION variables:          15

 DISCRETIZATION INPUT DATA READ FROM UNIT   10
    1 LAYERS        57 ROWS        63 COLUMNS
    1 STRESS PERIOD(S) IN SIMULATION
 MODEL TIME UNIT IS DAYS
 MODEL LENGTH UNIT IS FEET
  Confining bed flag for each layer:
   0

                     DELR =   1000.00    



                               DELC
 READING ON UNIT   10 WITH FORMAT: (10F13.0)           
   2000.0       1000.0       1000.0       1000.0       1000.0       1000.0       1000.0       1000.0       1000.0       1000.0    
   1000.0       1000.0       1000.0       1000.0       1000.0       1000.0       1000.0       1000.0       1000.0       1000.0    
   1000.0       1000.0       1000.0       1000.0       1000.0       1000.0       1000.0       1000.0       1000.0       1000.0    
   1000.0       1000.0       1000.0       1000.0       1000.0       1000.0       1000.0       1000.0       1000.0       1000.0    
   1000.0       1000.0       1000.0       1000.0       1000.0       1000.0       1000.0       1000.0       1000.0       1000.0    
   1000.0       1000.0       1000.0       1000.0       1000.0       1000.0       1000.0    



           TOP ELEVATION OF LAYER 1
 READING ON UNIT   10 WITH FORMAT: (10F13.0)           



             MODEL LAYER BOTTOM EL. FOR LAYER   1
 READING ON UNIT   10 WITH FORMAT: (10F13.0)           


 STRESS PERIOD     LENGTH       TIME STEPS     MULTIPLIER FOR DELT    SS FLAG
 ----------------------------------------------------------------------------
        1         1000.000          1                    1.000         SS

 STEADY-STATE SIMULATION



 
 #MODFLOW2000 Dataset Imported into Groundwater Vistas                           
 #                                                                               



                     BOUNDARY ARRAY FOR LAYER   1
 READING ON UNIT    1 WITH FORMAT: (20I4)              

 AQUIFER HEAD WILL BE SET TO   999.00     AT ALL NO-FLOW NODES (IBOUND=0).



                       INITIAL HEAD FOR LAYER   1
 READING ON UNIT    1 WITH FORMAT: (10F13.0)           

 OUTPUT CONTROL IS SPECIFIED EVERY TIME STEP
 HEAD PRINT FORMAT CODE IS   0    DRAWDOWN PRINT FORMAT CODE IS   0
 HEADS WILL BE SAVED ON UNIT   30    DRAWDOWNS WILL BE SAVED ON UNIT   31

 BCF -- BLOCK-CENTERED FLOW PACKAGE, VERSION 7, 5/2/2005
         INPUT READ FROM UNIT 11
 STEADY-STATE SIMULATION
 CELL-BY-CELL FLOWS WILL BE SAVED ON UNIT 50
 HEAD AT CELLS THAT CONVERT TO DRY= -0.10000E+31
 WETTING CAPABILITY IS NOT ACTIVE
      LAYER  LAYER-TYPE CODE     INTERBLOCK T
      --------------------------------------------
         1            3          0 -- HARMONIC    

 COLUMN TO ROW ANISOTROPY =   1.00000    



              HYD. COND. ALONG ROWS FOR LAYER   1
 READING ON UNIT   11 WITH FORMAT: (10F13.0)           

 WEL -- WELL PACKAGE, VERSION 7, 5/2/2005 INPUT READ FROM UNIT   12
 No named parameters
 MAXIMUM OF     63 ACTIVE WELLS AT ONE TIME
 CELL-BY-CELL FLOWS WILL BE SAVED ON UNIT   54


     0 Well parameters

 DRN -- DRAIN PACKAGE, VERSION 7, 5/2/2005 INPUT READ FROM UNIT   13
 No named parameters
 MAXIMUM OF      0 ACTIVE DRAINS AT ONE TIME
 CELL-BY-CELL FLOWS WILL BE SAVED ON UNIT   50


     0 Drain parameters

 RIV -- RIVER PACKAGE, VERSION 7, 5/2/2005 INPUT READ FROM UNIT   78
 No named parameters
 MAXIMUM OF     66 ACTIVE RIVER REACHES AT ONE TIME


     0 River parameters

 EVT -- EVAPOTRANSPIRATION PACKAGE, VERSION 7, 5/2/2005
         INPUT READ FROM UNIT   20
 No named parameters
 OPTION 1 -- EVAPOTRANSPIRATION FROM TOP LAYER
 CELL-BY-CELL FLOWS WILL BE SAVED ON UNIT   50


     0 Evapotranspiration parameters

 GHB -- GENERAL-HEAD BOUNDARY PACKAGE, VERSION 7, 5/2/2005
         INPUT READ FROM UNIT   37
 No named parameters
 MAXIMUM OF     14 ACTIVE GHB CELLS AT ONE TIME


     0 GHB parameters

 RCH -- RECHARGE PACKAGE, VERSION 7, 5/2/2005 INPUT READ FROM UNIT   18
 No named parameters
 OPTION 3 -- RECHARGE TO HIGHEST ACTIVE NODE IN EACH VERTICAL COLUMN
 CELL-BY-CELL FLOWS WILL BE SAVED ON UNIT   51


     0 Recharge parameters

 SFR7 -- STREAMFLOW ROUTING PACKAGE, VERSION 1.0.8, 2017-02-01
         INPUT READ FROM UNIT  81
 # SFR Package for MODFLOW2000
 No named parameters

 END PROCESSING SFR2 OPTIONS


 NUMBER OF STREAM REACHES IS  203

 NUMBER OF STREAM SEGMENTS IS   24

 NUMBER OF STREAM PARAMETERS IS    0

 NUMBER OF STREAM SEGMENTS DEFINED USING PARAMETERS IS              0

 MAXIMUM ERROR FOR STREAM LEAKAGE RATES IS  1.00E-02

 CONSTANT FOR MANNINGS EQUATION IS  1.2839E+05



 FLOW TO AND FROM GROUND WATER FOR EACH STREAM REACH WILL BE SAVED ON UNIT   50
 STREAM OUTPUT WILL BE WRITTEN TO FILE ON UNIT   58


   STREAM NETWORK DESCRIPTION: 

   LAYER    ROW    COL   SEGMENT   REACH     LENGTH
                          NUMBER   NUMBER    IN CELL        
   --------------------------------------------------
      1     56     47       1        1    1.1095E+03
      1     56     46       1        2    1.1095E+03
      1     55     46       1        3    1.1095E+03
      1     55     45       1        4    1.1095E+03
      1     54     45       1        5    1.1095E+03
      1     54     44       1        6    1.1095E+03
      1     53     44       1        7    1.1095E+03
      1     53     43       1        8    1.1095E+03
      1     53     42       1        9    1.1095E+03
      1     53     41       1       10    1.1095E+03
      1     52     41       1       11    1.1095E+03
      1     51     41       1       12    1.1095E+03
      1     51     40       1       13    1.1095E+03
      1     50     40       1       14    1.1095E+03
      1     50     39       1       15    1.1095E+03
      1     50     38       1       16    1.1095E+03
      1     49     38       1       17    1.1095E+03
      1     49     39       1       18    1.1095E+03
      1     48     39       1       19    1.1095E+03
      1     47     39       1       20    1.1095E+03
      1     47     38       2        1    7.8350E+02
      1     47     37       2        2    7.8350E+02
      1     46     37       2        3    7.8350E+02
      1     46     36       2        4    7.8350E+02
      1     45     36       2        5    7.8350E+02
      1     45     35       2        6    7.8350E+02
      1     44     35       2        7    7.8350E+02
      1     44     34       2        8    7.8350E+02
      1     43     34       2        9    7.8350E+02
      1     42     34       2       10    7.8350E+02
      1     42     33       2       11    7.8350E+02
      1     41     33       2       12    7.8350E+02
      1     42     32       3        1    9.4030E+02
      1     42     31       3        2    9.4030E+02
      1     43     31       3        3    9.4030E+02
      1     43     30       3        4    9.4030E+02
      1     44     30       3        5    9.4030E+02
      1     44     29       3        6    9.4030E+02
      1     44     28       3        7    9.4030E+02
      1     44     27       3        8    9.4030E+02
      1     44     26       3        9    9.4030E+02
      1     43     26       3       10    9.4030E+02
      1     43     25       3       11    9.4030E+02
      1     41     32       4        1    1.1775E+03
      1     41     31       4        2    1.1775E+03
      1     41     30       4        3    1.1775E+03
      1     41     29       4        4    1.1775E+03
      1     41     28       4        5    1.1775E+03
      1     40     28       4        6    1.1775E+03
      1     40     27       5        1    1.1310E+03
      1     40     26       5        2    1.1310E+03
      1     39     26       5        3    1.1310E+03
      1     39     25       5        4    1.1310E+03
      1     38     25       6        1    8.6690E+02
      1     37     25       6        2    8.6690E+02
      1     37     24       6        3    8.6690E+02
      1     36     24       6        4    8.6690E+02
      1     36     25       6        5    8.6690E+02
      1     35     25       6        6    8.6690E+02
      1     34     25       6        7    8.6690E+02
      1     34     26       6        8    8.6690E+02
      1     33     26       6        9    8.6690E+02
      1     33     27       6       10    8.6690E+02
      1     32     27       6       11    8.6690E+02
      1     32     28       6       12    8.6690E+02
      1     32     29       6       13    8.6690E+02
      1     31     29       6       14    8.6690E+02
      1     31     30       6       15    8.6690E+02
      1     30     30       6       16    8.6690E+02
      1     30     31       6       17    8.6690E+02
      1     29     31       6       18    8.6690E+02
      1     29     32       6       19    8.6690E+02
      1     28     32       6       20    8.6690E+02
      1     28     33       6       21    8.6690E+02
      1     27     33       6       22    8.6690E+02
      1     27     34       6       23    8.6690E+02
      1     26     34       6       24    8.6690E+02
      1     25     34       6       25    8.6690E+02
      1     39     24       7        1    1.2037E+03
      1     39     23       7        2    1.2037E+03
      1     39     22       7        3    1.2037E+03
      1     40     22       7        4    1.2037E+03
      1     40     21       7        5    1.2037E+03
      1     39     21       7        6    1.2037E+03
      1     39     20       7        7    1.2037E+03
      1     38     20       7        8    1.2037E+03
      1     37     20       7        9    1.2037E+03
      1     37     19       8        1    1.1068E+03
      1     37     18       8        2    1.1068E+03
      1     36     18       8        3    1.1068E+03
      1     36     17       8        4    1.1068E+03
      1     36     16       8        5    1.1068E+03
      1     35     18       9        1    8.9210E+02
      1     35     17       9        2    8.9210E+02
      1     34     17       9        3    8.9210E+02
      1     33     17       9        4    8.9210E+02
      1     32     17       9        5    8.9210E+02
      1     31     17       9        6    8.9210E+02
      1     31     18       9        7    8.9210E+02
      1     30     18       9        8    8.9210E+02
      1     29     18       9        9    8.9210E+02
      1     52      7      10        1    9.7000E+02
      1     52      8      10        2    9.7000E+02
      1     51      8      10        3    9.7000E+02
      1     51      9      10        4    9.7000E+02
      1     50      9      10        5    9.7000E+02
      1     50     10      10        6    9.7000E+02
      1     50     11      10        7    9.7000E+02
      1     49     11      10        8    9.7000E+02
      1     49     12      10        9    9.7000E+02
      1     50     12      10       10    9.7000E+02
      1     50     13      10       11    9.7000E+02
      1     49     18      11        1    8.2110E+02
      1     50     18      11        2    8.2110E+02
      1     50     17      11        3    8.2110E+02
      1     50     16      11        4    8.2110E+02
      1     50     15      11        5    8.2110E+02
      1     50     14      11        6    8.2110E+02
      1     49     13      12        1    1.0248E+03
      1     49     14      12        2    1.0248E+03
      1     49     15      12        3    1.0248E+03
      1     48     15      12        4    1.0248E+03
      1     48     16      12        5    1.0248E+03
      1     48     17      12        6    1.0248E+03
      1     47     17      12        7    1.0248E+03
      1     46     17      12        8    1.0248E+03
      1     46     16      12        9    1.0248E+03
      1     45     16      12       10    1.0248E+03
      1     45     15      12       11    1.0248E+03
      1     45     14      12       12    1.0248E+03
      1     44     14      12       13    1.0248E+03
      1     43     14      12       14    1.0248E+03
      1     43     13      12       15    1.0248E+03
      1     42     13      12       16    1.0248E+03
      1     42     12      13        1    8.2300E+02
      1     42     11      13        2    8.2300E+02
      1     42     10      13        3    8.2300E+02
      1     42      9      13        4    8.2300E+02
      1     42      8      13        5    8.2300E+02
      1     41      8      13        6    8.2300E+02
      1     40      8      13        7    8.2300E+02
      1     40      7      13        8    8.2300E+02
      1     39      7      13        9    8.2300E+02
      1     39      6      13       10    8.2300E+02
      1     38      6      13       11    8.2300E+02
      1     41     13      14        1    1.2380E+03
      1     40     13      14        2    1.2380E+03
      1     39     13      15        1    8.5740E+02
      1     38     13      15        2    8.5740E+02
      1     38     14      15        3    8.5740E+02
      1     37     14      15        4    8.5740E+02
      1     36     14      15        5    8.5740E+02
      1     36     15      15        6    8.5740E+02
      1     40     12      16        1    7.6260E+02
      1     39     12      16        2    7.6260E+02
      1     38     12      16        3    7.6260E+02
      1     37     12      16        4    7.6260E+02
      1     37     11      16        5    7.6260E+02
      1     36     11      16        6    7.6260E+02
      1     35     11      16        7    7.6260E+02
      1     34     11      16        8    7.6260E+02
      1     34     10      16        9    7.6260E+02
      1     35     16      17        1    1.0031E+03
      1     35     15      17        2    1.0031E+03
      1     35     14      17        3    1.0031E+03
      1     35     13      17        4    1.0031E+03
      1     34     13      17        5    1.0031E+03
      1     34     12      17        6    1.0031E+03
      1     33     12      17        7    1.0031E+03
      1     33     11      18        1    1.0480E+03
      1     33     10      18        2    1.0480E+03
      1     32     10      18        3    1.0480E+03
      1     31     10      19        1    1.1935E+03
      1     31      9      19        2    1.1935E+03
      1     30      9      19        3    1.1935E+03
      1     30      8      20        1    6.0320E+02
      1     29      8      20        2    6.0320E+02
      1     29      7      20        3    6.0320E+02
      1     28      7      20        4    6.0320E+02
      1     29      9      21        1    5.6320E+02
      1     29     10      21        2    5.6320E+02
      1     28     10      21        3    5.6320E+02
      1     28     11      21        4    5.6320E+02
      1     27     11      21        5    5.6320E+02
      1     32      9      22        1    2.0226E+03
      1     32      8      22        2    2.0226E+03
      1     31      8      22        3    2.0226E+03
      1     31      7      22        4    2.0226E+03
      1     31      6      22        5    2.0226E+03
      1     30      6      22        6    2.0226E+03
      1     30      5      22        7    2.0226E+03
      1     29      5      22        8    2.0226E+03
      1     28      5      23        1    1.7879E+03
      1     28      4      23        2    1.7879E+03
      1     28      3      23        3    1.7879E+03
      1     27      3      23        4    1.7879E+03
      1     27      2      23        5    1.7879E+03
      1     26      2      23        6    1.7879E+03
      1     27      5      24        1    7.8490E+02
      1     27      4      24        2    7.8490E+02
      1     26      4      24        3    7.8490E+02
      1     26      3      24        4    7.8490E+02
      1     25      3      24        5    7.8490E+02




 SIP -- STRONGLY-IMPLICIT PROCEDURE SOLUTION PACKAGE
                    VERSION 7, 5/2/2005 INPUT READ FROM UNIT   19
 MAXIMUM OF 250 ITERATIONS ALLOWED FOR CLOSURE
  5 ITERATION PARAMETERS

          SOLUTION BY THE STRONGLY IMPLICIT PROCEDURE
          -------------------------------------------
 MAXIMUM ITERATIONS ALLOWED FOR CLOSURE =      250
                 ACCELERATION PARAMETER =     1.0000    
      HEAD CHANGE CRITERION FOR CLOSURE =    0.10000E-02
      SIP HEAD CHANGE PRINTOUT INTERVAL =        1

     CALCULATE ITERATION PARAMETERS FROM MODEL CALCULATED WSEED
1
                            STRESS PERIOD NO.    1, LENGTH =   1000.000    
                            -----------------------------------------------

                              NUMBER OF TIME STEPS =     1

                               MULTIPLIER FOR DELT =     1.000

                            INITIAL TIME STEP SIZE =   1000.000    

 WELL NO.  LAYER   ROW   COL   STRESS RATE         
 --------------------------------------------------
      1      1     20     13     -0.9113E+05
      2      1     21     14     -0.7025E+05
      3      1     21     30      -6813.    
      4      1     22     15     -0.6076E+05
      5      1     22     32     -0.1062E+05
      6      1     23     16     -0.7595E+05
      7      1     23     20      -5210.    
      8      1     23     24      -4809.    
      9      1     23     26      -2405.    
     10      1     23     32      -5050.    
     11      1     24     16     -0.3607E+05
     12      1     24     21      -2805.    
     13      1     24     26      -2805.    
     14      1     24     29      -9618.    
     15      1     25     19      -9618.    
     16      1     25     23     -0.3286E+05
     17      1     25     28     -0.1042E+05
     18      1     26     27      -4408.    
     19      1     26     28      -7214.    
     20      1     26     29      -6813.    
     21      1     27     17      -4408.    
     22      1     27     21     -0.1603E+05
     23      1     27     25      -9618.    
     24      1     27     30      -8416.    
     25      1     28     14      -7013.    
     26      1     28     21      -4008.    
     27      1     29     20      -3607.    
     28      1     29     28      -8617.    
     29      1     30     43      -5611.    
     30      1     31      5     -0.1387E+05
     31      1     36     47      -8015.    
     32      1     38     14     -0.5504E+05
     33      1     39      5     -0.1040E+05
     34      1     39     13     -0.1560E+05
     35      1     39     15     -0.1001E+06
     36      1     39     19      -9535.    
     37      1     40      6     -0.1300E+05
     38      1     40     15      -1300.    
     39      1     40     16     -0.5374E+05
     40      1     40     18     -0.3207E+05
     41      1     40     31     -0.1924E+05
     42      1     41     14     -0.1214E+05
     43      1     41     15      -6501.    
     44      1     41     19     -0.2080E+05
     45      1     41     35      -5611.    
     46      1     41     36      -9218.    
     47      1     41     53      -9138.    
     48      1     42     12     -0.2288E+05
     49      1     42     13      -7802.    
     50      1     42     27     -0.2054E+05
     51      1     42     52      -4408.    
     52      1     43     18     -0.1734E+05
     53      1     43     53      -8015.    
     54      1     44     25     -0.1560E+05
     55      1     44     53      -8015.    
     56      1     44     54      -4008.    
     57      1     45     21     -0.2991E+05
     58      1     45     38     -0.1002E+05
     59      1     47     23     -0.1784E+05
     60      1     48     23      -7802.    
     61      1     52     40     -0.2932E+05
     62      1     39     23     -0.2000E+05
     63      1     35     15     -0.4000E+05

     63 WELLS

      0 DRAINS

 REACH NO.  LAYER   ROW   COL     STAGE      CONDUCTANCE     BOTTOM EL.         
 -------------------------------------------------------------------------------
      1      1     17      7       4480.          0.5000E+06       4440.    
      2      1     17      8       4480.          0.5000E+06       4440.    
      3      1     18      6       4480.          0.5000E+06       4440.    
      4      1     18      7       4480.          0.5000E+06       4440.    
      5      1     18      8       4480.          0.5000E+06       4440.    
      6      1     18      9       4480.          0.5000E+06       4440.    
      7      1     18     10       4480.          0.5000E+06       4440.    
      8      1     19      6       4480.          0.5000E+06       4440.    
      9      1     19      7       4480.          0.5000E+06       4440.    
     10      1     19      8       4480.          0.5000E+06       4440.    
     11      1     19      9       4480.          0.5000E+06       4440.    
     12      1     19     10       4480.          0.5000E+06       4440.    
     13      1     19     11       4480.          0.5000E+06       4440.    
     14      1     19     12       4480.          0.5000E+06       4440.    
     15      1     20      6       4480.          0.5000E+06       4440.    
     16      1     20      7       4480.          0.5000E+06       4440.    
     17      1     20      8       4480.          0.5000E+06       4440.    
     18      1     20      9       4480.          0.5000E+06       4440.    
     19      1     20     10       4480.          0.5000E+06       4440.    
     20      1     20     11       4480.          0.5000E+06       4440.    
     21      1     20     12       4480.          0.5000E+06       4440.    
     22      1     21      6       4480.          0.5000E+06       4440.    
     23      1     21      7       4480.          0.5000E+06       4440.    
     24      1     21      8       4480.          0.5000E+06       4440.    
     25      1     21      9       4480.          0.5000E+06       4440.    
     26      1     21     10       4480.          0.5000E+06       4440.    
     27      1     21     11       4480.          0.5000E+06       4440.    
     28      1     21     12       4480.          0.5000E+06       4440.    
     29      1     21     13       4480.          0.5000E+06       4440.    
     30      1     22      6       4480.          0.5000E+06       4440.    
     31      1     22      7       4480.          0.5000E+06       4440.    
     32      1     22      8       4480.          0.5000E+06       4440.    
     33      1     22      9       4480.          0.5000E+06       4440.    
     34      1     22     10       4480.          0.5000E+06       4440.    
     35      1     22     11       4480.          0.5000E+06       4440.    
     36      1     22     12       4480.          0.5000E+06       4440.    
     37      1     22     13       4480.          0.5000E+06       4440.    
     38      1     22     14       4480.          0.5000E+06       4440.    
     39      1     23      6       4480.          0.5000E+06       4440.    
     40      1     23      7       4480.          0.5000E+06       4440.    
     41      1     23      8       4480.          0.5000E+06       4440.    
     42      1     23      9       4480.          0.5000E+06       4440.    
     43      1     23     10       4480.          0.5000E+06       4440.    
     44      1     23     11       4480.          0.5000E+06       4440.    
     45      1     23     12       4480.          0.5000E+06       4440.    
     46      1     23     13       4480.          0.5000E+06       4440.    
     47      1     23     14       4480.          0.5000E+06       4440.    
     48      1     23     15       4480.          0.5000E+06       4440.    
     49      1     24      7       4480.          0.5000E+06       4440.    
     50      1     24      8       4480.          0.5000E+06       4440.    
     51      1     24      9       4480.          0.5000E+06       4440.    
     52      1     24     10       4480.          0.5000E+06       4440.    
     53      1     24     11       4480.          0.5000E+06       4440.    
     54      1     24     12       4480.          0.5000E+06       4440.    
     55      1     24     13       4480.          0.5000E+06       4440.    
     56      1     24     14       4480.          0.5000E+06       4440.    
     57      1     24     15       4480.          0.5000E+06       4440.    
     58      1     25      8       4480.          0.5000E+06       4440.    
     59      1     25      9       4480.          0.5000E+06       4440.    
     60      1     25     10       4480.          0.5000E+06       4440.    
     61      1     25     11       4480.          0.5000E+06       4440.    
     62      1     25     12       4480.          0.5000E+06       4440.    
     63      1     25     13       4480.          0.5000E+06       4440.    
     64      1     25     14       4480.          0.5000E+06       4440.    
     65      1     26     10       4480.          0.5000E+06       4440.    
     66      1     26     11       4480.          0.5000E+06       4440.    

     66 RIVER REACHES



                         ET SURFACE
 READING ON UNIT   20 WITH FORMAT: (10e12.4)           

  EVAPOTRANSPIRATION RATE =   0.00000    

         EXTINCTION DEPTH =   0.00000    

 BOUND. NO. LAYER   ROW   COL     STAGE      CONDUCTANCE         
 ----------------------------------------------------------------
      1      1     20      1       4430.           500.0    
      2      1     20      2       4430.           500.0    
      3      1     20      3       4430.           500.0    
      4      1     21      1       4430.           500.0    
      5      1     21      2       4430.           500.0    
      6      1     21      3       4430.           500.0    
      7      1     22      1       4430.           500.0    
      8      1     23      1       4430.           500.0    
      9      1     24      1       4430.           500.0    
     10      1     25      1       4430.           500.0    
     11      1     26      1       4430.           500.0    
     12      1     27      1       4430.           500.0    
     13      1     28      1       4430.           500.0    
     14      1     29      1       4430.           500.0    

     14 GHB CELLS



                           RECHARGE
 READING ON UNIT   18 WITH FORMAT: (10e12.4)           



 CLASSIFICATION & COUNT OF STREAM SEGMENTS BASED ON SOURCE OF INFLOW:

                HEADWATER     DIVERSION     RECEIVES TRIBUTARY FLOW
                ---------     ---------     -----------------------
                     3              8              13



                    INPUT DATA FOR EACH STREAM SEGMENT
 ---------------------------------------------------------------------------------------------

 SEGMENT    SEG.     INFLOW   OVERLAND   STREAM    STREAM   ICALC  OUTFLOW  DIVERSION PRIORITY
    NO.    LENGTH     RATE     RUNOFF      ET       PPT.    METH.  TO SEG.  FROM SEG.    NO.

      1  2.219E+04 1.901E+06 0.000E+00 0.000E+00 0.000E+00    1        2        0        0
      2  9.402E+03 0.000E+00 0.000E+00 0.000E+00 0.000E+00    1        4        0        0
      3  1.034E+04 7.171E+05 0.000E+00 0.000E+00 0.000E+00    1        0        1        0
      4  7.065E+03 0.000E+00 0.000E+00 0.000E+00 0.000E+00    1        5        0        0
      5  4.524E+03 0.000E+00 0.000E+00 0.000E+00 0.000E+00    1        7        0        0
      6  2.167E+04 2.428E+05 0.000E+00 0.000E+00 0.000E+00    1        0        4        0
      7  1.083E+04 0.000E+00 0.000E+00 0.000E+00 0.000E+00    1        8        0        0
      8  5.534E+03 0.000E+00 0.000E+00 0.000E+00 0.000E+00    1       17        0        0
      9  8.029E+03 2.670E+05 0.000E+00 0.000E+00 0.000E+00    1        0        7        0
     10  1.067E+04 3.015E+05 0.000E+00 0.000E+00 0.000E+00    1       12        0        0
     11  4.927E+03 1.261E+05 0.000E+00 0.000E+00 0.000E+00    1       12        0        0
     12  1.640E+04 0.000E+00 0.000E+00 0.000E+00 0.000E+00    1       14        0        0
     13  9.053E+03 2.160E+05 0.000E+00 0.000E+00 0.000E+00    1        0       12        0
     14  2.476E+03 0.000E+00 0.000E+00 0.000E+00 0.000E+00    1       15        0        0
     15  5.144E+03 0.000E+00 0.000E+00 0.000E+00 0.000E+00    1       17        0        0
     16  6.863E+03 3.923E+05 0.000E+00 0.000E+00 0.000E+00    1        0       14        0
     17  7.022E+03 0.000E+00 0.000E+00 0.000E+00 0.000E+00    1       18        0        0
     18  3.144E+03 0.000E+00 0.000E+00 0.000E+00 0.000E+00    1       22        0        0
     19  3.580E+03 6.480E+05 0.000E+00 0.000E+00 0.000E+00    1       21       18        0
     20  2.413E+03 4.320E+04 0.000E+00 0.000E+00 0.000E+00    1        0       19        0
     21  2.816E+03 0.000E+00 0.000E+00 0.000E+00 0.000E+00    1       -1        0        0
     22  1.618E+04 0.000E+00 0.000E+00 0.000E+00 0.000E+00    1       23        0        0
     23  1.073E+04 0.000E+00 0.000E+00 0.000E+00 0.000E+00    1        0        0        0
     24  3.924E+03 7.776E+04 0.000E+00 0.000E+00 0.000E+00    1        0       22        0


         STREAMBED PROPERTIES AND STREAM DIMENSIONS

 SEGMENT     BED HYD. COND.      BED THICKNESS     ELEV.-TOP OF BED     WIDTH OF STREAM     DEPTH OF STREAM    STREAM ROUGHNESS
    No.     UPPER     LOWER     UPPER     LOWER     UPPER     LOWER     UPPER     LOWER     UPPER     LOWER   CHANNEL      BANK

     1  5.000E-01 5.000E-01 1.000E+00 1.000E+00 4.716E+03 4.634E+03 1.300E+01 1.300E+01                     3.000E-02
     2  5.000E-01 5.000E-01 1.000E+00 1.000E+00 4.629E+03 4.597E+03 1.300E+01 1.300E+01                     3.000E-02
     3  0.000E+00 0.000E+00 1.000E+00 1.000E+00 4.589E+03 4.564E+03 1.300E+01 1.300E+01                     3.000E-02
     4  1.000E+00 1.000E+00 1.000E+00 1.000E+00 4.591E+03 4.579E+03 9.000E+00 9.000E+00                     3.000E-02
     5  5.000E-01 5.000E-01 1.000E+00 1.000E+00 4.575E+03 4.566E+03 7.000E+00 7.000E+00                     3.000E-02
     6  0.000E+00 0.000E+00 1.000E+00 1.000E+00 4.581E+03 4.547E+03 1.600E+01 1.600E+01                     3.000E-02
     7  1.000E+00 1.000E+00 1.000E+00 1.000E+00 4.545E+03 4.526E+03 1.000E+01 1.000E+01                     3.000E-02
     8  1.000E+00 1.000E+00 1.000E+00 1.000E+00 4.523E+03 4.506E+03 8.000E+00 8.000E+00                     3.000E-02
     9  0.000E+00 0.000E+00 1.000E+00 1.000E+00 4.527E+03 4.510E+03 1.000E+01 1.000E+01                     3.000E-02
    10  1.500E-01 1.500E-01 1.000E+00 1.000E+00 4.634E+03 4.594E+03 1.200E+01 1.200E+01                     3.000E-02
    11  0.000E+00 0.000E+00 1.000E+00 1.000E+00 4.588E+03 4.578E+03 1.000E+01 1.000E+01                     3.000E-02
    12  5.000E-01 5.000E-01 1.000E+00 1.000E+00 4.590E+03 4.526E+03 1.000E+01 1.000E+01                     3.000E-02
    13  0.000E+00 0.000E+00 1.000E+00 1.000E+00 4.529E+03 4.500E+03 1.200E+01 1.200E+01                     3.000E-02
    14  1.000E+00 1.000E+00 1.000E+00 1.000E+00 4.521E+03 4.519E+03 1.000E+01 1.000E+01                     3.000E-02
    15  1.000E+00 1.000E+00 1.000E+00 1.000E+00 4.517E+03 4.505E+03 7.000E+00 7.000E+00                     3.000E-02
    16  0.000E+00 0.000E+00 1.000E+00 1.000E+00 4.516E+03 4.490E+03 1.000E+01 1.000E+01                     3.000E-02
    17  1.000E+00 1.000E+00 1.000E+00 1.000E+00 4.499E+03 4.484E+03 8.000E+00 8.000E+00                     3.000E-02
    18  1.000E+00 1.000E+00 1.000E+00 1.000E+00 4.481E+03 4.477E+03 8.000E+00 8.000E+00                     3.000E-02
    19  0.000E+00 0.000E+00 1.000E+00 1.000E+00 4.480E+03 4.478E+03 1.000E+01 1.000E+01                     3.000E-02
    20  0.000E+00 0.000E+00 1.000E+00 1.000E+00 4.479E+03 4.474E+03 4.000E+00 4.000E+00                     3.000E-02
    21  0.000E+00 0.000E+00 1.000E+00 1.000E+00 4.478E+03 4.475E+03 1.000E+01 1.000E+01                     3.000E-02
    22  5.000E-01 5.000E-01 1.000E+00 1.000E+00 4.476E+03 4.459E+03 1.600E+01 1.600E+01                     3.000E-02
    23  1.000E+00 1.000E+00 1.000E+00 1.000E+00 4.459E+03 4.450E+03 1.800E+01 1.800E+01                     3.000E-02
    24  0.000E+00 0.000E+00 1.000E+00 1.000E+00 4.461E+03 4.453E+03 1.000E+01 1.000E+01                     3.000E-02



 
 SOLVING FOR HEAD 

 AVERAGE SEED = 0.00053338
 MINIMUM SEED = 0.00000126

     5 ITERATION PARAMETERS CALCULATED FROM AVERAGE SEED:

  0.000000E+00 0.848030E+00 0.976905E+00 0.996490E+00 0.999467E+00

    92 ITERATIONS FOR TIME STEP   1 IN STRESS PERIOD    1

 MAXIMUM HEAD CHANGE FOR EACH ITERATION:

    HEAD CHANGE   HEAD CHANGE   HEAD CHANGE   HEAD CHANGE   HEAD CHANGE
  LAYER,ROW,COL LAYER,ROW,COL LAYER,ROW,COL LAYER,ROW,COL LAYER,ROW,COL
 ----------------------------------------------------------------------
      207.6        -129.9        -100.2        -104.0        -69.33    
  (  1, 11, 16) (  1, 15, 16) (  1, 15, 19) (  1, 11, 23) (  1, 35, 45)
     -39.72         13.81        -18.59         12.74        -24.01    
  (  1, 55, 61) (  1, 39, 48) (  1, 11, 11) (  1, 34, 45) (  1, 45, 51)
      10.34         2.282        -5.486        -3.996        -14.81    
  (  1, 55, 61) (  1, 48, 47) (  1, 56, 60) (  1, 26, 49) (  1,  3, 60)
      1.862        -1.818        -1.776        -4.866        -4.975    
  (  1,  2, 51) (  1, 23, 43) (  1, 23, 43) (  1, 17, 43) (  1, 20, 37)
      1.490        0.9083        -1.760         2.257        -6.385    
  (  1, 49,  7) (  1, 13, 40) (  1,  4, 61) (  1, 53, 13) (  1,  3, 60)
     -1.004        0.5808       -0.5657        -1.940        -1.557    
  (  1, 49,  7) (  1,  3, 49) (  1,  3, 53) (  1, 13, 46) (  1, 28, 45)
     0.8472        0.3386       -0.6953        0.9606        -2.332    
  (  1, 49,  7) (  1, 11, 45) (  1,  4, 61) (  1, 53, 14) (  1,  3, 60)
    -0.4764        0.1844       -0.2142       -0.7635       -0.6350    
  (  1, 49,  7) (  1,  3, 49) (  1,  3, 53) (  1, 13, 47) (  1, 31, 47)
     0.3926        0.1310       -0.2616        0.4072       -0.8717    
  (  1, 49,  7) (  1, 11, 45) (  1,  4, 61) (  1, 53, 15) (  1,  3, 60)
    -0.2034        0.6608E-01   -0.8047E-01   -0.2750       -0.2482    
  (  1, 49,  7) (  1,  3, 49) (  1,  3, 53) (  1, 13, 47) (  1, 32, 47)
     0.1646        0.4722E-01   -0.9600E-01    0.1671       -0.3245    
  (  1, 49,  7) (  1, 11, 45) (  1,  4, 61) (  1, 53, 14) (  1,  3, 60)
    -0.8359E-01    0.2427E-01   -0.2987E-01   -0.1009       -0.9581E-01
  (  1, 49,  7) (  1,  3, 49) (  1,  3, 53) (  1, 14, 48) (  1, 32, 48)
     0.6614E-01    0.1726E-01   -0.3556E-01    0.6638E-01   -0.1209    
  (  1, 49,  7) (  1, 11, 45) (  1,  4, 61) (  1, 53, 14) (  1,  3, 60)
    -0.3323E-01    0.9507E-02   -0.1112E-01   -0.3731E-01   -0.3654E-01
  (  1, 49,  7) (  1, 50,  7) (  1,  3, 53) (  1, 14, 48) (  1, 33, 48)
     0.2586E-01   -0.6511E-02   -0.1320E-01    0.2565E-01   -0.4503E-01
  (  1, 49,  7) (  1, 49,  7) (  1,  4, 61) (  1, 53, 14) (  1,  3, 60)
    -0.1285E-01    0.3687E-02   -0.4136E-02   -0.1384E-01   -0.1384E-01
  (  1, 49,  7) (  1, 50,  7) (  1,  3, 53) (  1, 14, 48) (  1, 33, 48)
     0.9911E-02   -0.2496E-02   -0.4901E-02    0.9807E-02   -0.1678E-01
  (  1, 49,  7) (  1, 49,  7) (  1,  4, 61) (  1, 53, 14) (  1,  3, 60)
    -0.4912E-02    0.1405E-02   -0.1540E-02   -0.5128E-02   -0.5216E-02
  (  1, 49,  7) (  1, 50,  7) (  1,  3, 53) (  1, 14, 48) (  1, 33, 48)
     0.3776E-02   -0.9520E-03
  (  1, 49,  7) (  1, 49,  7)


 HEAD/DRAWDOWN PRINTOUT FLAG = 1     TOTAL BUDGET PRINTOUT FLAG = 1
 CELL-BY-CELL FLOW TERM FLAG = 1

 OUTPUT FLAGS FOR ALL LAYERS ARE THE SAME:
   HEAD    DRAWDOWN  HEAD  DRAWDOWN
 PRINTOUT  PRINTOUT  SAVE    SAVE
 ----------------------------------
     0         0       1       1
 UBUDSV SAVING "   CONSTANT HEAD" ON UNIT 50 AT TIME STEP  1, STRESS PERIOD    1
 UBUDSV SAVING "FLOW RIGHT FACE " ON UNIT 50 AT TIME STEP  1, STRESS PERIOD    1
 UBUDSV SAVING "FLOW FRONT FACE " ON UNIT 50 AT TIME STEP  1, STRESS PERIOD    1
 UBUDSV SAVING "           WELLS" ON UNIT 54 AT TIME STEP  1, STRESS PERIOD    1
 UBUDSV SAVING "              ET" ON UNIT 50 AT TIME STEP  1, STRESS PERIOD    1
 UBUDSV SAVING "        RECHARGE" ON UNIT 51 AT TIME STEP  1, STRESS PERIOD    1



 UBUDSV SAVING "  STREAM LEAKAGE" ON UNIT 50 AT TIME STEP  1, STRESS PERIOD    1

 HEAD WILL BE SAVED ON UNIT   30 AT END OF TIME STEP    1, STRESS PERIOD    1

 DRAWDOWN WILL BE SAVED ON UNIT   31 AT END OF TIME STEP    1, STRESS PERIOD    1
1
  VOLUMETRIC BUDGET FOR ENTIRE MODEL AT END OF TIME STEP    1, STRESS PERIOD   1
  ------------------------------------------------------------------------------

     CUMULATIVE VOLUMES      L**3       RATES FOR THIS TIME STEP      L**3/T
     ------------------                 ------------------------

           IN:                                      IN:
           ---                                      ---
             STORAGE =           0.0000               STORAGE =           0.0000
       CONSTANT HEAD =           0.0000         CONSTANT HEAD =           0.0000
               WELLS =           0.0000                 WELLS =           0.0000
              DRAINS =           0.0000                DRAINS =           0.0000
       RIVER LEAKAGE =   232370112.0000         RIVER LEAKAGE =      232370.1094
                  ET =           0.0000                    ET =           0.0000
     HEAD DEP BOUNDS =           0.0000       HEAD DEP BOUNDS =           0.0000
            RECHARGE =  2038555392.0000              RECHARGE =     2038555.3750
      STREAM LEAKAGE =   694225280.0000        STREAM LEAKAGE =      694225.2500

            TOTAL IN =  2965150720.0000              TOTAL IN =     2965150.7500

          OUT:                                     OUT:
          ----                                     ----
             STORAGE =           0.0000               STORAGE =           0.0000
       CONSTANT HEAD =           0.0000         CONSTANT HEAD =           0.0000
               WELLS =  1181819136.0000                 WELLS =     1181819.1250
              DRAINS =           0.0000                DRAINS =           0.0000
       RIVER LEAKAGE =   361930848.0000         RIVER LEAKAGE =      361930.8438
                  ET =           0.0000                    ET =           0.0000
     HEAD DEP BOUNDS =    50365352.0000       HEAD DEP BOUNDS =       50365.3516
            RECHARGE =   348704000.0000              RECHARGE =      348704.0000
      STREAM LEAKAGE =  1027074496.0000        STREAM LEAKAGE =     1027074.5000

           TOTAL OUT =  2969893888.0000             TOTAL OUT =     2969894.0000

            IN - OUT =    -4743168.0000              IN - OUT =       -4743.2500

 PERCENT DISCREPANCY =          -0.16     PERCENT DISCREPANCY =          -0.16






         TIME SUMMARY AT END OF TIME STEP    1 IN STRESS PERIOD    1
                    SECONDS     MINUTES      HOURS       DAYS        YEARS
                    -----------------------------------------------------------
   TIME STEP LENGTH 8.64000E+07 1.44000E+06  24000.      1000.0      2.7379    
 STRESS PERIOD TIME 8.64000E+07 1.44000E+06  24000.      1000.0      2.7379    
         TOTAL TIME 8.64000E+07 1.44000E+06  24000.      1000.0      2.7379    
1

 Run end date and time (yyyy/mm/dd hh:mm:ss): 2022/07/11 13:27:50
 Elapsed run time:  0.056 Seconds

