  MODFLOW-88/96 to MODFLOW-2K Data Conversion
 
  Length of X array:     2000000
  Maximum number of file names:         300
  Maximum number of stress periods:         250
 

 OPENING CALIBRATION.OUT
 FILE TYPE:LIST   UNIT   6

 OPENING CALIBRATION.BAS
 FILE TYPE:BAS   UNIT   1

 OPENING CALIBRATION.BCF
 FILE TYPE:BCF   UNIT  11

 OPENING CALIBRATION.WEL
 FILE TYPE:WEL   UNIT  12

 OPENING CALIBRATION.DRN
 FILE TYPE:DRN   UNIT  13

 OPENING CALIBRATION.RIV
 FILE TYPE:RIV   UNIT  78

 OPENING CALIBRATION.EVT
 FILE TYPE:EVT   UNIT  20

 OPENING CALIBRATION.GHB
 FILE TYPE:GHB   UNIT  37

 OPENING CALIBRATION.RCH
 FILE TYPE:RCH   UNIT  18

 OPENING CALIBRATION.OC
 FILE TYPE:OC   UNIT  22

 OPENING CALIBRATION.PCG
 FILE TYPE:PG4   UNIT  14

 OPENING CALIBRATION.SFR
 FILE TYPE:SFR   UNIT  81

 OPENING CALIBRATION._KX
 FILE TYPE:DATA   UNIT  73

 OPENING CALIBRATION.CBB
 FILE TYPE:DATA(BINARY)   UNIT  50

 OPENING CALIBRATION.CBW
 FILE TYPE:DATA(BINARY)   UNIT  54

 OPENING CALIBRATION.CRC
 FILE TYPE:DATA(BINARY)   UNIT  51

 OPENING CALIBRATION.HDS
 FILE TYPE:DATA(BINARY)   UNIT  30

 OPENING CALIBRATION.DDN
 FILE TYPE:DATA(BINARY)   UNIT  31
1                                 MODFLOW
      U.S. GEOLOGICAL SURVEY MODULAR FINITE-DIFFERENCE GROUND-WATER FLOW MODEL

 MODFLOW2000 Dataset Imported into Groundwater Vistas                          
                                                                               
    1 LAYERS        57 ROWS        63 COLUMNS
   1 STRESS PERIOD(S) IN SIMULATION
 MODEL TIME UNIT IS DAYS

 BAS5 -- BASIC MODEL PACKAGE, VERSION 5, 1/1/95 INPUT READ FROM UNIT  1
 ARRAYS RHS AND BUFF WILL HAVE SEPARATE MEMORY ALLOCATIONS
 INITIAL HEAD WILL BE KEPT THROUGHOUT THE SIMULATION
      10893 ELEMENTS IN X ARRAY ARE USED BY BAS
      10893 ELEMENTS OF X ARRAY USED OUT OF    2000000

 BCF5 -- BLOCK-CENTERED FLOW PACKAGE, VERSION 5, 9/1/93 INPUT READ FROM UNIT 11
 STEADY-STATE SIMULATION
 CELL-BY-CELL FLOWS WILL BE SAVED ON UNIT 50
 HEAD AT CELLS THAT CONVERT TO DRY= -0.10000E+31
 WETTING CAPABILITY IS NOT ACTIVE
      LAYER  LAYER-TYPE CODE     INTERBLOCK T
      --------------------------------------------
         1            3          0 -- HARMONIC    
      10774 ELEMENTS IN X ARRAY ARE USED BY BCF
      21667 ELEMENTS OF X ARRAY USED OUT OF    2000000
1
 MODFLOW2000 Dataset Imported into Groundwater Vistas                          
                                                                               



                     BOUNDARY ARRAY FOR LAYER   1
 READING ON UNIT   1 WITH FORMAT: (25I3)              

 AQUIFER HEAD WILL BE SET TO  999.00     AT ALL NO-FLOW NODES (IBOUND=0).



                       INITIAL HEAD FOR LAYER   1
 READING ON UNIT   1 WITH FORMAT: (10e12.4)           

 COLUMN TO ROW ANISOTROPY =   1.000000    

                     DELR =   1000.000    



                               DELC
 READING ON UNIT  11 WITH FORMAT: (10E12.4)           
   2000.0       1000.0       1000.0       1000.0       1000.0       1000.0       1000.0       1000.0       1000.0       1000.0    
   1000.0       1000.0       1000.0       1000.0       1000.0       1000.0       1000.0       1000.0       1000.0       1000.0    
   1000.0       1000.0       1000.0       1000.0       1000.0       1000.0       1000.0       1000.0       1000.0       1000.0    
   1000.0       1000.0       1000.0       1000.0       1000.0       1000.0       1000.0       1000.0       1000.0       1000.0    
   1000.0       1000.0       1000.0       1000.0       1000.0       1000.0       1000.0       1000.0       1000.0       1000.0    
   1000.0       1000.0       1000.0       1000.0       1000.0       1000.0       1000.0    



              HYD. COND. ALONG ROWS FOR LAYER   1
 READING ON UNIT  73 WITH FORMAT: (10e12.4)           



                             BOTTOM FOR LAYER   1
 READING ON UNIT  11 WITH FORMAT: (10e12.4)           



                                TOP FOR LAYER   1
 READING ON UNIT  11 WITH FORMAT: (10e12.4)           
1
                            STRESS PERIOD NO.   1, LENGTH =   1000.000    
                            ----------------------------------------------

                              NUMBER OF TIME STEPS =     1

                               MULTIPLIER FOR DELT =     1.000
