# DIS6 input file, prepared by MF5to6 on 7/11/2022 at 13:49:56.

BEGIN Options
  LENGTH_UNITS  FEET
END Options

BEGIN Dimensions
  NLAY  1
  NROW  57
  NCOL  63
END Dimensions

BEGIN GRIDDATA
  DELR
    CONSTANT    1000.00000        DELR
  DELC
    INTERNAL  FACTOR    1.00000000      IPRN  3    DELC
   2000.00000       1000.00000       1000.00000       1000.00000       1000.00000       1000.00000       1000.00000       1000.00000       1000.00000       1000.00000    
   1000.00000       1000.00000       1000.00000       1000.00000       1000.00000       1000.00000       1000.00000       1000.00000       1000.00000       1000.00000    
   1000.00000       1000.00000       1000.00000       1000.00000       1000.00000       1000.00000       1000.00000       1000.00000       1000.00000       1000.00000    
   1000.00000       1000.00000       1000.00000       1000.00000       1000.00000       1000.00000       1000.00000       1000.00000       1000.00000       1000.00000    
   1000.00000       1000.00000       1000.00000       1000.00000       1000.00000       1000.00000       1000.00000       1000.00000       1000.00000       1000.00000    
   1000.00000       1000.00000       1000.00000       1000.00000       1000.00000       1000.00000       1000.00000    
  TOP LAYERED
    INTERNAL  FACTOR    1.000000      IPRN  3
   4395.400       4385.400       4371.300       4369.300       4374.800       4374.700       4394.500       4407.300       4405.800       4384.800    
   4378.100       4386.200       4393.100       4401.200       4418.900       4440.100       4457.700       4472.000       4467.100       4474.600    
   4484.300       4500.200       4525.600       4540.800       4546.300       4545.500       4538.400       4536.100       4528.200       4561.000    
   4573.100       4601.900       4673.000       4822.200       4846.600       4819.300       4875.500       4900.700       4857.700       4802.800    
   4845.100       4810.700       4765.400       4758.300       4719.000       4666.100       4650.300       4628.700       4598.800       4596.400    
   4572.900       4558.400       4541.700       4526.200       4516.700       4509.200       4506.500       4502.100       4502.600       4506.200    
   4512.400       4519.300       4526.300    
   4417.500       4418.600       4411.000       4391.300       4375.200       4377.200       4384.600       4394.700       4415.500       4402.900    
   4389.200       4393.800       4401.800       4422.600       4433.800       4443.200       4469.700       4481.300       4483.800       4490.500    
   4508.300       4536.600       4578.100       4679.300       4623.000       4580.300       4567.700       4565.400       4543.600       4567.900    
   4595.700       4615.300       4651.700       4757.000       4850.500       4871.400       4882.500       4880.100       4849.400       4835.300    
   4845.700       4796.100       4750.900       4725.500       4708.100       4680.000       4681.700       4673.700       4624.600       4590.400    
   4580.000       4557.700       4540.800       4526.500       4520.700       4518.400       4511.400       4506.100       4505.000       4508.500    
   4514.200       4521.100       4530.200    
   4403.900       4417.600       4424.500       4413.000       4403.100       4389.000       4387.200       4394.800       4413.000       4422.300    
   4419.600       4420.300       4418.000       4430.200       4443.800       4454.100       4462.100       4480.200       4495.100       4510.000    
   4535.200       4564.600       4629.300       4721.300       4644.400       4614.100       4587.800       4575.400       4573.900       4582.100    
   4617.600       4646.100       4697.300       4806.100       4841.300       4898.700       4895.700       4874.200       4864.300       4852.700    
   4820.800       4785.700       4767.000       4743.100       4736.000       4721.100       4701.700       4668.900       4643.300       4628.700    
   4608.700       4567.900       4546.900       4533.300       4524.900       4521.900       4519.400       4510.200       4506.900       4508.900    
   4515.000       4522.100       4535.000    
   4381.800       4398.700       4404.300       4407.900       4404.900       4405.400       4396.800       4401.700       4420.000       4443.700    
   4462.400       4461.200       4446.000       4438.400       4451.700       4464.900       4478.000       4478.400       4502.200       4523.500    
   4548.100       4583.700       4642.300       4749.100       4713.100       4647.700       4612.000       4596.600       4605.200       4625.300    
   4635.200       4736.500       4801.500       4895.500       4947.200       4936.500       4905.300       4888.500       4877.800       4837.600    
   4839.400       4842.600       4807.200       4769.500       4735.800       4716.700       4694.500       4675.300       4663.100       4641.200    
   4599.300       4562.000       4547.500       4539.700       4532.100       4525.400       4524.500       4519.800       4512.000       4510.200    
   4516.200       4521.900       4527.700    
   4399.400       4407.000       4414.500       4413.200       4419.800       4412.600       4401.700       4406.000       4423.200       4443.200    
   4457.900       4467.600       4465.500       4457.300       4469.700       4482.400       4499.200       4505.500       4518.400       4522.800    
   4536.000       4580.700       4633.700       4723.000       4711.700       4662.300       4628.000       4634.500       4658.900       4711.500    
   4656.000       4706.800       4833.900       4968.900       4983.900       4952.700       4945.300       4929.700       4881.700       4892.200    
   4904.800       4896.900       4855.600       4806.100       4776.300       4754.600       4730.100       4688.500       4653.600       4618.100    
   4586.900       4566.900       4557.200       4549.200       4540.000       4534.400       4531.000       4526.900       4520.200       4519.400    
   4522.200       4523.900       4527.900    
   4400.700       4414.500       4425.100       4428.400       4446.200       4429.900       4412.400       4417.600       4425.400       4434.800    
   4446.000       4460.600       4473.800       4477.500       4492.500       4506.100       4525.800       4544.500       4581.200       4568.400    
   4541.900       4583.700       4639.800       4686.800       4744.000       4706.700       4666.500       4686.800       4723.500       4860.800    
   4723.300       4740.900       4930.300       5034.900       5023.000       4984.500       4951.400       4929.100       4900.700       4902.300    
   4894.400       4859.500       4811.900       4783.800       4751.500       4726.900       4703.900       4700.900       4680.200       4653.300    
   4606.700       4579.800       4570.900       4564.500       4548.000       4542.100       4535.500       4529.400       4526.200       4524.800    
   4527.900       4527.000       4534.400    
   4401.500       4416.400       4424.400       4442.600       4471.200       4462.800       4438.600       4444.400       4442.000       4448.300    
   4457.600       4471.000       4488.000       4497.700       4513.600       4536.200       4564.500       4587.100       4620.400       4623.800    
   4568.100       4569.200       4610.000       4651.500       4724.500       4736.100       4718.900       4733.100       4819.300       4948.500    
   4790.800       4880.200       4854.300       5015.600       5024.200       4976.800       4965.400       4946.900       4908.800       4877.600    
   4830.400       4804.900       4782.500       4756.000       4738.300       4709.500       4690.300       4670.400       4653.600       4637.900    
   4619.100       4609.800       4594.000       4582.000       4560.600       4547.000       4536.200       4528.100       4526.900       4527.500    
   4533.900       4534.800       4541.700    
   4414.500       4435.400       4444.500       4454.600       4467.300       4469.700       4464.300       4467.500       4456.500       4463.800    
   4475.800       4490.600       4505.300       4525.700       4540.600       4572.200       4613.400       4712.800       4727.700       4638.100    
   4600.700       4605.500       4619.700       4649.700       4725.000       4790.300       4848.500       4805.200       4866.600       5022.800    
   4967.100       5032.000       5028.900       5086.200       5051.000       4992.800       4986.100       4973.600       4951.700       4924.700    
   4874.300       4827.700       4806.000       4811.600       4770.800       4736.900       4716.700       4699.700       4685.300       4661.000    
   4697.900       4666.900       4635.400       4599.700       4569.000       4551.600       4537.700       4524.600       4522.900       4534.100    
   4547.000       4544.200       4545.900    
   4430.500       4442.400       4449.200       4451.700       4463.900       4478.200       4487.500       4478.600       4467.500       4473.500    
   4487.400       4503.000       4525.400       4550.000       4570.300       4604.300       4676.100       4733.600       4684.100       4690.100    
   4673.700       4694.000       4689.200       4744.900       4743.500       4865.500       4892.500       4980.400       5003.000       5054.700    
   5150.400       5126.300       5136.100       5117.600       5057.100       5031.200       5041.600       5010.900       4948.200       4904.000    
   4899.600       4866.200       4835.300       4835.100       4831.000       4799.900       4772.400       4755.000       4730.200       4727.100    
   4707.800       4678.500       4636.800       4600.800       4596.600       4569.800       4543.200       4538.300       4536.300       4551.500    
   4574.200       4552.600       4547.100    
   4431.100       4432.900       4440.700       4447.200       4466.100       4480.900       4482.300       4473.600       4471.600       4482.600    
   4498.100       4515.200       4539.000       4566.000       4609.600       4631.400       4664.200       4760.200       4850.500       4925.900    
   4895.700       4926.200       4790.200       4961.700       4974.000       5007.600       5049.000       5082.000       5101.900       5149.300    
   5152.300       5159.000       5146.700       5100.400       5037.200       5066.300       5046.700       4993.800       4927.500       4847.900    
   4813.700       4786.300       4764.600       4748.100       4819.800       4877.300       4880.500       4844.800       4791.500       4778.900    
   4762.300       4704.500       4632.300       4589.100       4577.400       4556.500       4553.600       4551.600       4552.200       4552.400    
   4551.500       4551.900       4548.300    
   4417.500       4427.900       4439.100       4442.000       4463.500       4466.300       4459.100       4461.400       4470.000       4491.000    
   4509.400       4533.800       4563.500       4590.400       4622.800       4657.600       4780.900       4946.200       4971.400       4982.400    
   4986.900       4988.900       4988.900       5015.900       5039.500       5067.400       5086.300       5095.000       5115.500       5100.300    
   5083.100       5076.200       5085.000       5034.500       4973.100       5042.600       5029.300       4977.400       4943.600       4915.800    
   4893.500       4861.900       4806.800       4729.600       4742.600       4787.400       4810.400       4822.900       4789.000       4738.200    
   4729.300       4670.900       4614.900       4575.500       4550.500       4549.600       4557.800       4560.800       4566.900       4567.500    
   4570.300       4562.400       4555.300    
   4426.300       4428.200       4439.400       4444.900       4448.400       4458.900       4462.700       4464.600       4476.800       4500.200    
   4524.900       4552.000       4582.200       4621.100       4691.400       4837.400       4908.300       4978.400       4986.400       4986.800    
   4986.100       4992.400       5007.700       5020.200       5030.300       5068.600       5061.000       5049.200       5072.800       5026.300    
   4976.400       5000.200       5001.200       4946.300       4956.800       5016.100       4978.400       4944.300       4892.900       4850.800    
   4812.000       4784.600       4752.000       4729.400       4682.600       4693.400       4721.100       4699.500       4688.600       4650.100    
   4630.200       4611.700       4592.600       4567.600       4563.000       4562.400       4569.100       4574.900       4575.500       4573.100    
   4569.800       4565.300       4563.100    
   4459.300       4435.400       4455.900       4473.000       4473.600       4468.800       4469.100       4470.600       4487.700       4510.400    
   4539.700       4576.500       4612.200       4652.300       4835.500       4989.600       5003.900       4995.300       4987.100       4986.700    
   4983.600       4992.500       5009.200       5016.800       5042.000       5053.200       5023.400       4974.400       5044.300       5027.400    
   4884.900       4857.300       4866.900       4908.200       4992.600       4972.400       4867.600       4848.300       4895.400       4887.800    
   4819.200       4767.800       4719.100       4687.600       4668.600       4642.200       4639.600       4640.000       4627.800       4603.800    
   4592.900       4582.300       4571.500       4568.300       4569.100       4579.600       4589.300       4587.000       4580.700       4570.100    
   4565.600       4566.600       4567.900    
   4476.800       4454.800       4445.600       4463.000       4469.100       4467.900       4468.400       4476.000       4489.600       4516.100    
   4551.400       4603.200       4695.100       4814.100       4939.600       5040.000       5023.100       5002.100       4983.800       4983.400    
   4982.800       4985.900       4999.000       5004.100       5022.800       5029.800       4985.700       4895.200       4969.900       4958.700    
   4888.800       4810.600       4897.600       4954.600       4931.800       4889.600       4808.200       4786.400       4870.200       4898.800    
   4847.900       4781.800       4750.700       4719.200       4659.000       4630.600       4616.300       4606.100       4594.500       4586.500    
   4580.400       4576.400       4577.800       4581.800       4587.200       4591.000       4591.100       4587.300       4577.400       4572.800    
   4569.700       4570.800       4573.900    
   4487.500       4482.500       4466.800       4462.600       4468.200       4469.800       4469.600       4478.500       4492.200       4516.000    
   4554.900       4613.100       4711.100       4888.700       5016.200       5036.100       5014.200       4995.500       4981.100       4973.900    
   4976.100       4982.200       5004.800       5029.800       5016.000       4992.100       4962.300       4888.200       4863.700       4901.000    
   4910.400       4801.200       4822.600       4851.300       4816.500       4777.100       4739.500       4747.900       4791.000       4794.600    
   4816.600       4778.300       4729.100       4672.600       4654.300       4620.200       4607.900       4597.700       4589.800       4584.900    
   4582.200       4585.800       4590.000       4592.000       4592.200       4594.400       4588.700       4582.600       4581.800       4581.700    
   4577.300       4577.600       4579.600    
   4497.600       4498.200       4487.300       4496.000       4491.500       4491.800       4480.000       4479.400       4490.800       4511.700    
   4543.700       4583.500       4623.200       4745.000       4886.300       4992.700       5001.300       4991.200       4981.900       4969.100    
   4968.700       4961.800       4988.100       5000.900       4971.100       4936.400       4822.800       4831.900       4800.900       4796.500    
   4851.000       4797.600       4749.600       4749.400       4722.800       4697.700       4684.300       4677.600       4675.700       4680.100    
   4689.400       4678.900       4654.500       4621.900       4610.700       4600.500       4594.400       4588.100       4585.600       4585.200    
   4588.100       4592.400       4595.100       4598.400       4597.000       4593.700       4588.100       4584.600       4587.900       4588.200    
   4583.500       4584.700       4586.400    
   4490.600       4495.200       4502.200       4511.500       4510.100       4501.300       4488.200       4482.700       4487.600       4504.200    
   4528.200       4555.200       4581.300       4614.600       4657.500       4735.500       4879.400       4896.900       4942.700       4955.100    
   4926.800       4854.800       4880.100       4877.000       4820.100       4795.500       4749.800       4689.200       4694.900       4733.900    
   4732.500       4744.900       4717.100       4690.700       4680.700       4668.500       4656.500       4648.800       4637.400       4633.900    
   4630.400       4632.400       4643.800       4617.500       4594.300       4585.900       4583.500       4586.300       4586.100       4590.200    
   4593.200       4606.600       4606.200       4603.400       4599.900       4596.400       4589.000       4589.200       4593.900       4593.500    
   4591.000       4597.100       4600.000    
   4500.400       4523.800       4527.800       4524.100       4511.400       4498.600       4486.400       4482.600       4483.000       4490.300    
   4507.900       4529.000       4548.000       4574.500       4601.900       4636.500       4671.300       4768.900       4767.500       4739.400    
   4731.200       4741.000       4718.300       4742.700       4754.700       4671.400       4651.700       4636.700       4664.500       4650.000    
   4677.000       4694.400       4676.500       4665.700       4666.000       4666.500       4658.300       4637.200       4625.200       4612.800    
   4610.300       4604.500       4602.000       4595.500       4590.000       4585.600       4585.600       4590.600       4596.800       4601.200    
   4604.500       4610.900       4610.500       4605.900       4602.700       4601.200       4597.000       4597.300       4604.000       4609.900    
   4621.100       4628.800       4617.400    
   4460.600       4511.300       4511.900       4520.600       4505.000       4488.600       4482.600       4482.600       4482.600       4482.700    
   4487.100       4504.200       4525.000       4547.200       4566.200       4595.700       4651.100       4677.100       4731.500       4689.600    
   4650.300       4701.300       4681.200       4686.100       4642.700       4614.100       4599.900       4597.700       4611.800       4619.800    
   4676.500       4690.000       4665.800       4657.600       4644.400       4633.800       4632.700       4612.400       4608.400       4604.200    
   4598.400       4590.700       4586.600       4584.100       4583.200       4587.100       4594.700       4609.600       4614.300       4608.800    
   4609.400       4612.900       4613.300       4609.800       4607.600       4608.800       4610.800       4609.900       4618.200       4641.600    
   4648.100       4643.700       4636.400    
   4453.400       4460.800       4499.600       4510.800       4495.200       4483.200       4482.600       4482.600       4482.600       4482.600    
   4482.600       4490.000       4509.300       4525.800       4539.900       4557.000       4581.800       4600.700       4610.100       4614.500    
   4605.200       4640.900       4662.600       4642.300       4605.700       4584.900       4572.100       4569.500       4577.300       4598.200    
   4621.300       4621.100       4619.500       4622.300       4620.200       4613.100       4600.100       4599.500       4601.800       4602.000    
   4596.800       4592.200       4587.900       4585.800       4588.800       4596.300       4608.200       4625.600       4621.400       4618.200    
   4618.100       4618.400       4619.400       4619.400       4620.100       4624.700       4638.700       4645.200       4627.300       4640.700    
   4647.900       4645.900       4645.600    
   4454.200       4460.200       4460.000       4458.600       4468.400       4482.700       4482.600       4482.600       4482.600       4482.600    
   4482.600       4483.700       4495.400       4503.700       4512.200       4527.900       4539.900       4555.300       4564.000       4566.800    
   4569.700       4583.000       4598.600       4612.400       4598.000       4566.600       4554.400       4550.400       4547.300       4547.200    
   4557.200       4565.500       4566.800       4568.500       4572.300       4581.200       4597.800       4609.000       4607.500       4606.200    
   4602.000       4599.100       4599.100       4602.800       4609.000       4613.700       4625.400       4627.400       4624.300       4627.900    
   4625.800       4623.400       4625.800       4632.700       4644.500       4652.500       4655.200       4652.700       4637.900       4635.200    
   4649.500       4650.000       4650.400    
   4453.000       4460.000       4460.700       4462.800       4467.600       4485.000       4483.200       4482.600       4482.600       4482.600    
   4482.600       4482.600       4486.500       4489.800       4495.400       4503.500       4507.800       4522.000       4532.700       4539.500    
   4541.300       4544.400       4547.200       4555.300       4549.500       4540.400       4538.200       4535.600       4528.700       4525.500    
   4527.600       4531.500       4535.200       4541.800       4554.900       4589.800       4623.700       4632.200       4620.100       4617.100    
   4608.200       4610.800       4617.800       4620.100       4622.300       4627.600       4634.000       4627.800       4632.100       4636.500    
   4634.700       4632.900       4646.700       4658.700       4663.800       4664.600       4661.800       4653.300       4639.600       4645.800    
   4650.200       4649.500       4652.000    
   4455.800       4460.900       4465.500       4471.300       4495.600       4507.300       4500.600       4484.300       4482.600       4482.600    
   4482.600       4483.600       4485.200       4486.600       4488.300       4491.600       4494.600       4499.300       4507.300       4518.200    
   4519.000       4514.600       4515.500       4519.200       4522.800       4522.300       4522.500       4520.600       4516.400       4521.500    
   4525.600       4520.900       4528.000       4538.500       4552.700       4588.800       4630.000       4634.600       4628.100       4631.400    
   4624.400       4634.400       4655.800       4659.600       4656.600       4650.100       4632.700       4633.000       4644.500       4649.800    
   4656.800       4653.400       4666.400       4671.400       4672.200       4670.900       4667.200       4656.000       4646.400       4649.300    
   4653.800       4659.000       4664.400    
   4453.100       4457.900       4460.400       4465.700       4470.700       4479.100       4484.900       4485.500       4482.600       4482.600    
   4483.000       4484.400       4485.400       4486.300       4487.100       4489.200       4493.300       4496.000       4497.500       4503.100    
   4503.700       4503.200       4504.200       4506.200       4509.900       4513.400       4514.200       4512.800       4509.400       4510.600    
   4523.700       4523.000       4530.500       4545.000       4568.400       4605.500       4618.700       4627.600       4649.800       4655.500    
   4653.600       4653.700       4653.300       4657.200       4656.300       4645.200       4638.700       4643.100       4654.600       4667.200    
   4673.800       4670.800       4677.600       4680.300       4678.600       4675.300       4671.300       4660.400       4650.800       4659.000    
   4665.400       4668.100       4666.600    
   4456.600       4457.600       4460.000       4466.400       4475.300       4478.800       4478.400       4480.300       4482.600       4482.600    
   4483.600       4486.300       4487.100       4487.400       4488.600       4492.100       4496.600       4498.900       4499.500       4500.600    
   4502.600       4503.600       4504.600       4506.400       4507.400       4509.900       4512.000       4511.200       4508.400       4507.300    
   4517.800       4523.300       4535.900       4552.300       4564.900       4593.500       4621.700       4656.400       4684.700       4690.800    
   4687.500       4682.100       4666.500       4664.200       4659.800       4646.700       4643.000       4652.500       4665.800       4678.300    
   4685.700       4686.400       4686.400       4686.700       4682.400       4680.900       4676.900       4668.100       4665.400       4666.000    
   4667.900       4671.400       4669.900    
   4455.900       4460.000       4460.000       4465.000       4470.400       4477.200       4478.400       4480.600       4486.100       4482.800    
   4482.800       4486.300       4487.900       4490.000       4493.200       4496.200       4499.100       4502.200       4503.300       4504.400    
   4506.400       4508.300       4507.600       4507.600       4509.100       4511.000       4512.700       4509.600       4511.200       4515.100    
   4526.000       4531.600       4531.500       4553.700       4571.600       4602.100       4651.800       4692.000       4702.100       4707.700    
   4704.700       4698.300       4674.700       4665.600       4663.500       4650.200       4650.300       4664.100       4683.600       4691.300    
   4692.600       4691.000       4687.000       4684.500       4685.900       4687.300       4687.200       4673.200       4667.300       4668.500    
   4668.500       4674.800       4673.100    
   4460.000       4460.000       4460.000       4463.400       4470.000       4477.000       4476.400       4479.000       4487.400       4487.000    
   4487.000       4487.700       4491.700       4494.500       4498.700       4501.700       4504.400       4506.700       4507.400       4507.700    
   4508.700       4511.800       4514.400       4512.800       4511.800       4512.600       4512.500       4509.500       4509.900       4521.400    
   4542.000       4540.600       4556.500       4555.100       4593.800       4640.500       4693.500       4705.500       4708.100       4721.000    
   4715.000       4690.500       4667.300       4666.900       4664.900       4652.800       4654.400       4669.300       4686.400       4693.300    
   4690.800       4689.400       4687.900       4688.200       4690.400       4690.700       4690.000       4680.000       4669.800       4675.300    
   4673.100       4677.900       4675.700    
   4462.000       4461.900       4461.000       4463.000       4465.000       4476.400       4479.000       4481.300       4485.800       4481.000    
   4485.500       4489.900       4495.700       4496.900       4501.000       4508.000       4508.700       4509.500       4511.500       4512.500    
   4513.500       4514.300       4515.700       4516.000       4515.500       4515.500       4515.800       4515.500       4515.500       4528.100    
   4532.700       4559.300       4557.900       4580.700       4613.400       4658.300       4697.000       4707.800       4708.800       4711.400    
   4708.100       4679.400       4667.600       4667.600       4662.200       4657.200       4662.700       4665.500       4679.800       4691.700    
   4692.300       4691.100       4688.700       4692.000       4693.400       4692.100       4691.100       4684.200       4678.200       4685.500    
   4680.700       4680.200       4679.000    
   4490.100       4467.900       4465.800       4465.100       4465.000       4474.900       4480.700       4482.400       4483.000       4482.000    
   4490.700       4493.700       4496.900       4501.200       4505.900       4508.200       4513.200       4515.100       4516.100       4517.800    
   4518.700       4518.300       4517.800       4519.600       4519.300       4518.900       4519.500       4522.100       4524.400       4530.400    
   4562.000       4560.600       4574.300       4604.200       4645.500       4690.300       4707.600       4707.600       4707.500       4704.600    
   4700.700       4683.000       4670.600       4666.700       4661.000       4663.300       4671.300       4664.800       4674.200       4692.600    
   4694.700       4692.300       4692.900       4700.000       4697.900       4697.100       4694.000       4687.200       4686.100       4689.400    
   4685.300       4683.200       4672.900    
   4483.600       4470.700       4470.300       4469.100       4468.000       4470.000       4477.800       4484.100       4483.000       4492.800    
   4494.700       4497.300       4500.000       4504.100       4507.600       4510.600       4514.600       4517.200       4520.200       4524.500    
   4524.100       4524.200       4523.800       4524.700       4527.300       4523.900       4525.100       4529.000       4531.100       4564.800    
   4563.400       4585.100       4604.000       4645.400       4676.300       4693.500       4706.100       4707.300       4707.500       4707.900    
   4708.800       4712.000       4688.100       4663.900       4663.500       4672.800       4685.400       4669.300       4672.200       4691.100    
   4690.600       4697.500       4704.600       4706.500       4704.200       4700.500       4697.100       4689.300       4690.600       4693.800    
   4693.600       4690.700       4675.100    
   4488.900       4474.700       4473.400       4476.500       4469.700       4472.000       4474.000       4476.000       4484.000       4485.000    
   4497.300       4499.800       4503.400       4506.700       4510.000       4515.000       4521.400       4519.300       4525.600       4528.400    
   4530.000       4530.200       4530.500       4532.100       4531.500       4529.600       4531.000       4538.200       4567.600       4566.200    
   4577.200       4609.600       4636.400       4669.400       4695.000       4706.900       4709.600       4708.400       4709.100       4711.200    
   4708.900       4708.700       4685.700       4664.300       4671.300       4689.300       4694.000       4673.600       4672.300       4694.900    
   4703.300       4706.700       4709.000       4710.300       4707.100       4706.300       4702.000       4691.400       4690.000       4700.200    
   4704.800       4694.100       4689.900    
   4494.600       4482.700       4476.400       4478.800       4478.100       4476.700       4479.100       4480.000       4483.000       4485.000    
   4498.900       4502.200       4505.800       4508.800       4512.800       4517.000       4523.500       4526.500       4530.700       4535.200    
   4535.900       4535.000       4535.700       4539.100       4538.200       4536.600       4571.800       4570.400       4569.000       4572.900    
   4591.200       4613.500       4641.700       4669.400       4695.100       4712.100       4712.600       4711.500       4709.500       4714.300    
   4709.600       4691.000       4680.400       4668.100       4679.900       4700.800       4696.000       4677.600       4678.600       4702.000    
   4710.400       4711.400       4712.600       4713.600       4712.000       4709.600       4704.700       4699.000       4691.500       4708.400    
   4707.400       4704.400       4706.700    
   4499.400       4488.600       4478.100       4478.800       4481.700       4481.400       4479.900       4485.500       4488.700       4488.000    
   4493.000       4495.800       4508.300       4511.300       4514.500       4518.100       4525.600       4529.900       4533.300       4536.400    
   4538.200       4540.100       4541.100       4542.300       4543.700       4574.600       4573.200       4561.400       4581.500       4614.000    
   4634.000       4635.000       4653.500       4668.100       4700.300       4713.200       4715.500       4716.800       4714.600       4717.700    
   4709.200       4688.700       4681.900       4674.500       4685.000       4692.400       4688.800       4685.800       4686.900       4708.200    
   4715.000       4716.600       4717.300       4717.600       4715.200       4708.700       4709.200       4706.600       4698.300       4707.800    
   4716.400       4712.000       4719.400    
   4496.100       4489.200       4488.000       4482.300       4484.200       4488.000       4486.000       4489.200       4493.600       4495.400    
   4498.600       4496.000       4499.000       4512.000       4516.400       4520.300       4527.700       4533.800       4535.900       4538.400    
   4542.000       4545.900       4548.100       4550.800       4577.400       4576.000       4569.800       4595.100       4634.500       4651.500    
   4658.000       4677.600       4676.300       4675.000       4699.200       4714.700       4717.000       4720.300       4720.800       4717.300    
   4703.500       4689.600       4686.500       4682.400       4687.600       4687.900       4688.500       4688.000       4697.000       4714.300    
   4719.300       4721.400       4722.500       4722.100       4718.500       4712.800       4714.400       4710.900       4707.600       4705.500    
   4721.300       4726.500       4728.800    
   4498.800       4498.800       4496.800       4492.400       4490.600       4492.500       4495.500       4494.700       4498.200       4498.700    
   4501.800       4501.900       4500.000       4503.000       4507.000       4509.800       4529.800       4531.900       4537.300       4540.800    
   4544.800       4548.900       4552.100       4554.200       4578.700       4578.800       4611.200       4639.700       4662.600       4678.800    
   4680.100       4694.300       4704.700       4708.700       4715.100       4719.800       4721.800       4723.200       4724.200       4718.600    
   4705.400       4698.900       4692.900       4686.500       4687.300       4685.600       4686.600       4695.800       4717.800       4726.600    
   4725.200       4726.100       4727.500       4727.600       4724.700       4724.800       4725.900       4722.100       4710.800       4704.500    
   4714.600       4733.100       4746.600    
   4506.000       4505.500       4501.000       4497.900       4496.900       4498.200       4500.000       4501.600       4501.900       4502.800    
   4505.000       4510.500       4511.400       4511.000       4510.000       4509.900       4514.600       4519.300       4539.900       4543.800    
   4547.500       4550.800       4554.700       4581.500       4580.100       4589.600       4613.500       4644.500       4679.700       4701.000    
   4706.500       4711.600       4714.400       4717.300       4721.200       4724.000       4727.000       4728.600       4728.200       4728.700    
   4715.000       4705.100       4706.700       4696.400       4687.800       4686.300       4688.900       4701.000       4724.700       4731.600    
   4732.100       4732.200       4733.500       4733.100       4728.000       4734.400       4738.000       4736.700       4722.100       4710.700    
   4728.700       4741.600       4753.100    
   4511.900       4509.200       4505.200       4502.500       4501.400       4501.900       4503.100       4505.300       4507.700       4508.500    
   4508.300       4511.500       4517.000       4514.000       4516.700       4519.900       4524.000       4523.900       4528.600       4533.800    
   4550.100       4553.700       4557.000       4582.900       4584.300       4633.400       4651.900       4680.100       4689.900       4703.600    
   4710.600       4715.200       4719.100       4722.000       4725.600       4728.100       4732.100       4734.500       4734.900       4730.700    
   4724.500       4716.700       4706.800       4691.100       4687.500       4690.100       4692.500       4701.000       4717.700       4733.700    
   4737.600       4738.600       4739.300       4738.500       4738.400       4748.600       4751.400       4754.700       4732.200       4717.600    
   4723.500       4735.900       4747.400    
   4518.700       4514.000       4509.400       4506.000       4504.800       4505.000       4505.900       4506.900       4509.400       4511.300    
   4515.600       4514.700       4519.000       4516.000       4523.300       4526.900       4529.600       4531.800       4534.900       4535.900    
   4550.400       4556.000       4560.500       4565.700       4585.700       4629.700       4660.700       4676.200       4674.500       4687.700    
   4687.100       4702.100       4714.800       4707.100       4721.400       4730.100       4737.000       4738.000       4737.700       4736.900    
   4737.900       4723.200       4697.400       4688.800       4696.100       4698.200       4697.400       4701.900       4712.700       4732.900    
   4742.500       4745.500       4745.200       4744.900       4744.000       4745.600       4740.700       4746.500       4743.600       4728.100    
   4727.200       4731.200       4741.600    
   4533.100       4526.800       4519.900       4509.700       4508.700       4507.900       4510.700       4510.200       4512.400       4515.800    
   4518.600       4517.900       4522.000       4523.100       4528.100       4533.300       4535.600       4538.700       4541.500       4537.900    
   4539.900       4546.100       4548.100       4558.200       4570.500       4573.600       4594.300       4605.900       4621.900       4628.600    
   4636.100       4650.800       4654.500       4663.400       4684.700       4693.300       4709.100       4722.400       4730.100       4735.200    
   4735.500       4718.100       4695.100       4696.300       4723.700       4711.500       4702.800       4702.700       4712.600       4735.000    
   4746.800       4751.300       4750.700       4755.300       4754.300       4727.600       4722.300       4728.900       4746.400       4738.100    
   4735.300       4730.600       4743.600    
   4551.400       4545.900       4534.800       4526.800       4519.900       4514.400       4513.600       4516.500       4516.200       4519.100    
   4521.700       4521.100       4524.000       4527.800       4532.300       4537.100       4539.800       4542.800       4546.900       4547.600    
   4542.000       4546.100       4557.300       4558.200       4561.100       4576.700       4579.800       4584.000       4590.400       4597.900    
   4604.600       4608.700       4615.000       4619.500       4630.600       4644.700       4656.500       4663.600       4672.000       4706.400    
   4735.100       4712.000       4698.900       4712.100       4738.700       4731.200       4709.500       4704.000       4714.600       4736.000    
   4750.300       4753.900       4748.200       4742.300       4740.200       4721.700       4723.600       4734.600       4748.900       4749.400    
   4755.100       4747.500       4786.300    
   4570.400       4566.800       4558.800       4548.900       4533.000       4526.000       4521.000       4519.400       4521.400       4525.500    
   4527.600       4527.200       4526.000       4533.000       4535.400       4538.200       4543.100       4545.200       4547.400       4550.200    
   4548.800       4552.800       4553.900       4560.600       4565.100       4567.000       4571.700       4586.400       4588.800       4591.100    
   4593.500       4595.900       4601.900       4605.900       4612.500       4622.800       4627.000       4626.500       4648.300       4697.800    
   4722.000       4707.600       4695.700       4715.300       4744.700       4740.000       4722.700       4709.600       4712.800       4721.300    
   4738.600       4751.500       4747.500       4725.400       4724.900       4725.800       4727.300       4744.800       4759.700       4762.400    
   4770.200       4771.600       4801.100    
   4599.200       4596.900       4589.400       4571.300       4550.300       4540.800       4534.400       4522.200       4525.100       4528.000    
   4530.800       4533.700       4530.700       4538.400       4540.100       4543.500       4547.500       4548.800       4550.000       4553.300    
   4556.100       4557.900       4558.300       4563.400       4569.600       4574.100       4579.400       4581.900       4586.800       4587.500    
   4591.300       4593.800       4604.800       4607.700       4612.500       4618.300       4622.300       4622.900       4633.500       4660.700    
   4687.200       4708.500       4701.300       4710.100       4742.200       4747.700       4733.000       4724.400       4727.500       4718.500    
   4723.100       4725.000       4726.300       4728.900       4733.400       4737.300       4741.100       4753.000       4771.200       4776.800    
   4780.300       4778.700       4788.500    
   4632.200       4626.100       4609.400       4594.200       4577.100       4560.900       4545.500       4539.400       4538.800       4541.900    
   4541.100       4539.800       4535.300       4536.000       4546.200       4548.700       4551.300       4553.000       4554.500       4556.100    
   4559.400       4562.500       4565.600       4568.300       4568.800       4571.300       4581.800       4587.200       4591.500       4586.300    
   4588.800       4604.200       4601.000       4610.600       4610.500       4615.400       4620.500       4624.900       4629.000       4645.400    
   4669.300       4698.500       4702.200       4710.500       4747.000       4758.900       4745.300       4741.500       4727.100       4722.000    
   4721.200       4722.400       4726.500       4732.600       4743.700       4751.200       4756.300       4767.600       4784.300       4792.500    
   4800.100       4792.900       4793.800    
   4667.600       4663.400       4651.000       4621.200       4602.000       4586.600       4571.300       4562.900       4552.100       4551.400    
   4547.100       4545.400       4546.800       4545.000       4549.300       4553.100       4555.400       4557.400       4558.600       4559.100    
   4562.100       4565.700       4568.900       4571.400       4573.700       4573.800       4576.300       4578.800       4581.300       4583.800    
   4608.700       4633.900       4648.400       4613.400       4616.300       4615.500       4624.000       4630.200       4636.400       4642.900    
   4655.900       4677.900       4699.500       4717.900       4755.500       4766.600       4756.700       4748.700       4728.900       4725.800    
   4725.200       4726.200       4728.600       4732.500       4747.900       4770.300       4775.000       4784.300       4801.800       4806.900    
   4819.000       4825.700       4843.400    
   4765.700       4805.100       4716.400       4664.300       4628.700       4616.600       4605.700       4584.900       4566.900       4557.700    
   4554.600       4554.100       4554.700       4549.000       4549.000       4550.000       4560.400       4562.200       4563.000       4563.900    
   4565.300       4567.500       4569.600       4573.900       4577.800       4581.000       4584.400       4587.700       4594.900       4603.300    
   4608.200       4639.400       4649.100       4625.900       4619.200       4622.100       4626.500       4632.200       4635.600       4642.700    
   4653.600       4677.700       4705.400       4734.100       4758.800       4771.300       4765.000       4752.100       4736.500       4730.200    
   4730.900       4729.800       4728.100       4733.500       4746.900       4776.500       4809.300       4820.300       4840.500       4856.000    
   4855.200       4864.600       4875.600    
   4961.500       4802.900       4703.600       4674.300       4667.800       4653.400       4624.000       4598.200       4578.400       4569.100    
   4572.400       4584.100       4573.800       4558.400       4554.800       4557.000       4564.000       4567.500       4567.400       4568.100    
   4567.400       4574.200       4578.600       4576.400       4579.000       4584.800       4588.500       4594.700       4596.900       4598.600    
   4597.500       4603.000       4611.300       4620.400       4614.600       4624.900       4627.800       4633.800       4632.600       4649.600    
   4661.200       4681.500       4710.500       4749.200       4764.600       4776.500       4777.900       4760.300       4749.400       4737.300    
   4737.400       4737.500       4732.100       4738.800       4750.700       4770.400       4808.200       4839.500       4854.500       4872.400    
   4891.700       4900.100       4885.600    
   5051.900       4855.700       4840.900       4789.400       4731.700       4681.300       4658.300       4619.900       4593.800       4584.300    
   4594.400       4605.400       4588.900       4582.700       4584.300       4581.200       4568.000       4571.300       4572.200       4573.600    
   4573.600       4582.000       4587.500       4584.800       4583.700       4590.000       4596.000       4598.400       4596.200       4596.300    
   4600.300       4611.900       4623.300       4639.400       4637.300       4623.700       4630.700       4633.600       4639.400       4649.300    
   4663.600       4679.800       4699.900       4741.000       4770.300       4778.500       4783.300       4772.100       4754.200       4742.400    
   4743.600       4743.100       4739.800       4741.600       4749.700       4767.400       4796.600       4842.200       4861.000       4881.000    
   4903.400       4905.300       4941.200    
   5182.200       5116.400       5061.700       4943.700       4792.600       4719.500       4670.000       4637.500       4609.400       4599.800    
   4616.700       4621.100       4613.100       4605.700       4580.000       4575.000       4572.000       4575.200       4576.800       4580.900    
   4584.100       4584.300       4592.600       4593.600       4590.800       4607.400       4605.800       4603.200       4605.200       4610.600    
   4611.500       4636.400       4674.500       4686.200       4667.200       4649.000       4630.000       4626.300       4643.700       4659.000    
   4664.300       4675.200       4696.700       4723.100       4750.500       4782.800       4788.800       4775.100       4755.600       4745.800    
   4747.500       4746.000       4745.900       4745.600       4752.700       4770.000       4782.100       4798.900       4829.800       4862.400    
   4894.200       4914.700       4932.500    
   5195.500       5127.000       5075.600       4957.900       4808.500       4729.400       4694.700       4658.800       4622.100       4614.400    
   4610.900       4606.900       4595.000       4590.000       4585.000       4578.700       4579.100       4582.800       4584.000       4598.900    
   4602.500       4597.900       4597.600       4600.300       4604.300       4623.700       4652.700       4646.900       4639.600       4640.600    
   4630.100       4660.500       4677.800       4671.000       4665.600       4660.200       4651.600       4652.200       4647.900       4653.700    
   4662.900       4678.500       4708.000       4747.600       4764.300       4775.100       4789.200       4773.300       4754.300       4745.900    
   4747.500       4747.700       4747.600       4747.300       4750.700       4771.000       4782.900       4796.200       4822.400       4847.800    
   4875.900       4912.900       4944.400    
   5123.900       4930.200       4938.000       4901.700       4788.400       4719.700       4687.400       4655.400       4622.800       4618.900    
   4614.900       4602.900       4598.900       4593.100       4591.000       4589.000       4586.900       4584.900       4592.200       4603.200    
   4611.400       4609.300       4615.600       4619.900       4639.100       4651.600       4662.900       4661.200       4665.200       4653.400    
   4669.400       4675.300       4671.000       4668.600       4666.000       4659.300       4651.500       4656.500       4660.700       4665.000    
   4666.900       4684.400       4715.000       4747.900       4778.800       4775.000       4788.500       4768.600       4751.900       4746.600    
   4749.800       4748.200       4751.600       4759.900       4759.400       4774.200       4809.300       4819.100       4836.500       4857.700    
   4896.000       4958.100       5006.800    
   5022.100       4929.900       4806.600       4747.800       4715.600       4681.600       4661.500       4630.800       4626.800       4611.100    
   4606.200       4606.100       4607.000       4605.800       4604.600       4602.400       4601.400       4597.400       4601.100       4605.500    
   4611.600       4621.600       4642.300       4646.000       4671.100       4684.400       4684.600       4681.700       4682.800       4674.600    
   4677.500       4670.000       4669.400       4668.400       4658.800       4649.900       4653.000       4646.900       4642.300       4669.300    
   4673.600       4687.400       4710.100       4726.600       4732.900       4734.300       4768.700       4765.800       4756.200       4753.100    
   4762.500       4758.800       4757.200       4779.300       4792.800       4804.900       4841.000       4870.500       4869.600       4898.400    
   4946.400       4994.800       5113.500    
   4980.000       4889.800       4778.500       4706.600       4673.600       4652.100       4638.800       4634.800       4620.800       4615.200    
   4619.400       4620.700       4620.100       4619.600       4614.500       4612.100       4608.800       4608.300       4612.700       4618.400    
   4634.200       4651.900       4669.500       4687.700       4695.700       4695.900       4697.500       4696.700       4685.500       4677.300    
   4672.000       4676.400       4671.700       4670.200       4664.100       4659.000       4663.500       4677.100       4670.800       4652.300    
   4677.800       4684.500       4699.300       4690.000       4692.200       4706.600       4734.300       4762.800       4764.200       4761.600    
   4772.200       4779.600       4763.700       4764.700       4776.600       4784.700       4801.700       4833.200       4869.000       4916.700    
   4979.100       5066.100       5214.500    
   4781.600       4757.300       4715.800       4684.700       4652.400       4632.400       4631.600       4640.200       4634.700       4631.000    
   4634.800       4635.000       4634.300       4641.300       4639.300       4635.300       4637.400       4635.000       4638.900       4661.100    
   4679.700       4705.400       4701.000       4700.700       4705.900       4704.700       4697.400       4700.700       4682.700       4693.300    
   4698.100       4686.800       4687.000       4674.600       4676.000       4684.600       4692.000       4711.200       4675.800       4658.600    
   4682.100       4686.400       4690.600       4694.900       4677.000       4688.600       4717.000       4760.500       4766.700       4764.400    
   4778.400       4789.800       4778.700       4767.000       4773.000       4785.000       4797.600       4826.500       4879.300       4951.400    
   5009.600       5084.900       5243.000    
   4735.200       4716.600       4700.300       4669.700       4643.400       4635.800       4675.400       4706.100       4675.500       4649.700    
   4650.400       4651.800       4666.600       4689.600       4690.600       4680.400       4673.200       4682.300       4676.300       4709.600    
   4718.300       4713.800       4709.000       4705.800       4704.400       4697.300       4691.300       4689.600       4700.900       4720.500    
   4716.200       4705.400       4691.200       4682.500       4695.000       4697.000       4720.500       4704.100       4672.400       4667.300    
   4669.700       4660.500       4666.600       4699.200       4703.400       4690.500       4711.400       4754.200       4767.200       4770.000    
   4781.000       4789.500       4789.000       4776.300       4772.600       4785.900       4802.200       4833.500       4902.900       4996.100    
   5073.600       5160.200       5244.400    
   4712.800       4695.900       4674.600       4651.100       4641.800       4664.600       4689.900       4711.400       4692.600       4665.700    
   4669.700       4688.500       4713.700       4724.100       4727.600       4722.800       4718.700       4713.300       4702.800       4729.600    
   4729.400       4722.800       4717.800       4714.300       4705.200       4698.700       4720.300       4730.700       4719.000       4711.400    
   4703.400       4692.000       4702.500       4698.800       4723.800       4740.300       4729.500       4705.100       4690.600       4679.500    
   4671.600       4670.400       4671.600       4669.700       4707.700       4712.000       4710.300       4759.500       4776.000       4774.300    
   4793.800       4812.600       4813.600       4806.900       4807.400       4795.200       4810.100       4831.500       4873.600       4924.300    
   4990.200       5085.600       5115.400    
   4671.800       4661.400       4653.000       4653.300       4683.500       4736.300       4710.100       4705.700       4713.400       4697.600    
   4704.700       4711.300       4746.400       4742.000       4745.900       4742.200       4743.600       4743.500       4742.200       4744.700    
   4741.100       4738.700       4728.300       4727.300       4711.700       4718.000       4741.000       4735.200       4714.400       4716.600    
   4709.600       4708.400       4722.900       4732.500       4771.000       4804.600       4769.900       4760.700       4718.700       4691.700    
   4675.900       4681.000       4678.600       4672.400       4669.900       4716.200       4720.500       4766.600       4783.200       4784.000    
   4800.400       4819.900       4820.200       4826.400       4836.800       4818.500       4815.100       4829.400       4852.800       4885.800    
   4951.200       4997.000       5018.400    
   4689.100       4679.800       4678.900       4684.500       4719.300       4721.900       4718.900       4749.700       4749.600       4726.000    
   4723.900       4744.800       4756.700       4761.900       4763.300       4765.500       4776.500       4773.700       4777.300       4799.600    
   4777.200       4754.900       4741.200       4734.400       4723.700       4740.000       4739.500       4731.000       4730.900       4735.400    
   4730.700       4741.100       4759.900       4801.300       4829.600       4808.600       4760.400       4746.200       4732.400       4688.800    
   4693.400       4697.100       4687.800       4684.700       4678.100       4673.100       4690.600       4750.800       4781.000       4787.600    
   4812.800       4816.900       4809.700       4826.300       4832.700       4843.300       4826.400       4824.900       4843.800       4865.800    
   4896.900       4943.400       4964.200    
  BOTM LAYERED
    INTERNAL  FACTOR    1.000000      IPRN  3
   4365.400       4355.400       4341.300       4339.300       4344.800       4344.700       4364.500       4368.000       4351.200       4350.400    
   4348.100       4350.000       4348.300       4342.400       4331.800       4321.700       4313.900       4308.000       4304.100       4301.800    
   4300.600       4300.100       4300.000       4299.800       4298.100       4295.800       4293.500       4291.200       4289.300       4287.700    
   4286.400       4285.400       4284.600       4283.700       4282.700       4281.300       4279.400       4277.100       4274.200       4270.900    
   4267.100       4262.900       4258.800       4254.800       4251.200       4249.500       4245.100       4234.200       4218.300       4205.200    
   4198.100       4187.800       4171.200       4155.100       4146.500       4128.000       4104.800       4100.000       4100.000       4100.000    
   4100.000       4100.000       4100.000    
   4370.000       4370.000       4370.000       4360.000       4345.200       4347.200       4354.600       4364.700       4354.900       4352.600    
   4351.000       4350.200       4349.400       4345.700       4337.200       4327.400       4318.800       4311.800       4306.700       4303.300    
   4301.500       4300.800       4300.300       4299.900       4298.200       4295.800       4293.300       4291.000       4288.900       4287.200    
   4285.900       4284.900       4284.000       4283.200       4282.100       4280.800       4278.900       4276.400       4273.500       4270.100    
   4266.400       4262.300       4258.200       4254.200       4250.800       4248.400       4241.400       4226.900       4211.700       4202.200    
   4195.200       4180.100       4161.600       4151.300       4141.700       4116.600       4101.000       4100.000       4100.000       4100.000    
   4100.000       4100.000       4100.000    
   4370.000       4370.000       4390.000       4383.000       4360.000       4359.000       4357.200       4364.800       4362.300       4358.300    
   4354.900       4352.500       4350.800       4348.800       4343.100       4334.500       4325.500       4317.600       4311.200       4306.800    
   4304.700       4303.200       4301.900       4300.600       4298.400       4295.800       4293.200       4290.700       4288.600       4286.900    
   4285.500       4284.400       4283.500       4282.700       4281.600       4280.200       4278.300       4275.800       4272.900       4269.500    
   4265.600       4261.600       4257.400       4253.400       4249.800       4245.900       4236.800       4221.200       4207.700       4200.200    
   4191.200       4173.400       4156.600       4149.000       4135.000       4109.600       4100.200       4100.000       4100.000       4100.000    
   4100.000       4100.000       4100.000    
   4351.800       4468.700       4374.300       4377.900       4374.900       4375.400       4366.800       4371.700       4372.900       4367.600    
   4363.000       4358.900       4355.200       4352.400       4348.600       4342.300       4334.600       4326.600       4319.400       4314.400    
   4310.400       4306.900       4304.400       4302.200       4298.900       4296.100       4293.200       4290.600       4288.400       4286.500    
   4285.000       4283.900       4283.000       4282.100       4281.100       4279.600       4277.700       4275.200       4272.000       4268.400    
   4264.600       4260.600       4256.300       4252.100       4247.400       4240.900       4229.100       4215.100       4204.600       4197.300    
   4184.200       4165.000       4153.000       4146.800       4129.600       4106.800       4100.100       4100.000       4100.000       4100.000    
   4100.000       4100.000       4100.000    
   4369.400       4370.000       4384.500       4383.200       4389.800       4382.600       4371.700       4376.000       4383.700       4378.900    
   4374.100       4369.000       4363.500       4358.300       4353.500       4348.500       4342.700       4336.000       4329.100       4322.500    
   4316.800       4312.000       4307.800       4304.200       4300.000       4296.400       4293.200       4290.400       4288.100       4286.000    
   4284.500       4283.400       4282.400       4281.400       4280.300       4278.900       4276.900       4274.300       4271.100       4267.500    
   4263.500       4259.300       4254.900       4250.300       4243.800       4234.000       4221.200       4209.400       4201.600       4194.000    
   4177.400       4158.900       4150.600       4144.100       4125.400       4105.800       4100.100       4100.000       4100.000       4100.000    
   4100.000       4100.000       4100.000    
   4370.000       4370.000       4395.100       4398.400       4400.000       4399.900       4382.400       4387.600       4392.300       4389.200    
   4385.300       4380.700       4374.700       4367.400       4360.300       4353.400       4347.100       4341.300       4335.000       4329.100    
   4323.500       4318.100       4312.500       4306.800       4301.300       4296.900       4293.200       4290.200       4287.600       4285.600    
   4284.100       4282.700       4281.600       4280.500       4279.300       4277.800       4275.800       4273.300       4270.100       4266.400    
   4262.200       4257.800       4252.900       4247.600       4238.900       4226.600       4214.200       4204.900       4199.000       4190.300    
   4173.200       4156.600       4150.000       4142.200       4123.400       4105.600       4100.200       4100.000       4100.000       4100.000    
   4100.000       4100.000       4100.000    
   4370.000       4370.000       4394.400       4400.000       4400.000       4400.000       4399.300       4398.400       4397.400       4395.900    
   4393.700       4390.400       4385.500       4378.900       4370.100       4360.000       4351.400       4345.300       4339.800       4335.300    
   4330.500       4324.400       4317.400       4310.000       4303.100       4297.700       4293.400       4289.900       4287.400       4285.300    
   4283.400       4281.800       4280.300       4279.000       4277.700       4276.100       4274.200       4271.900       4268.700       4264.800    
   4260.500       4255.800       4250.700       4244.100       4233.400       4220.100       4209.100       4202.300       4197.000       4186.900    
   4170.200       4155.900       4149.800       4141.700       4123.000       4106.000       4100.400       4100.000       4100.000       4100.000    
   4100.000       4100.000       4100.000    
   4370.000       4400.000       4400.000       4405.000       4400.000       4400.000       4400.000       4399.900       4399.600       4399.100    
   4398.200       4396.600       4393.800       4388.700       4380.300       4368.700       4357.300       4349.400       4344.700       4340.700    
   4336.200       4330.300       4322.300       4313.400       4305.000       4298.700       4294.000       4290.400       4287.400       4284.900    
   4282.500       4280.600       4278.800       4277.200       4275.600       4273.800       4271.800       4269.600       4266.800       4263.000    
   4258.500       4253.600       4248.400       4240.100       4227.700       4215.000       4205.900       4200.400       4194.300       4183.300    
   4167.200       4155.000       4149.900       4141.100       4120.800       4106.000       4100.900       4100.000       4100.000       4100.000    
   4100.000       4100.000       4100.000    
   4380.000       4400.000       4400.000       4405.000       4400.000       4400.000       4400.000       4400.000       4400.000       4400.000    
   4399.800       4399.300       4398.100       4394.800       4388.300       4377.300       4363.900       4353.300       4348.300       4344.800    
   4340.600       4334.800       4326.100       4315.900       4306.300       4299.700       4294.900       4291.400       4287.900       4284.700    
   4281.900       4279.500       4277.300       4275.400       4273.400       4271.400       4269.200       4266.800       4264.400       4261.000    
   4256.400       4251.300       4245.100       4235.000       4221.400       4209.600       4203.100       4198.500       4190.800       4178.200    
   4164.100       4154.000       4149.800       4140.600       4123.100       4108.600       4102.200       4100.300       4100.000       4100.000    
   4100.000       4100.000       4100.000    
   4380.000       4400.000       4400.000       4405.000       4400.000       4400.000       4400.000       4400.000       4400.000       4400.000    
   4400.000       4399.900       4399.500       4397.600       4392.500       4382.300       4368.200       4356.100       4349.800       4347.000    
   4343.600       4338.100       4329.300       4318.400       4308.100       4300.700       4296.200       4292.500       4288.600       4284.900    
   4281.700       4278.800       4276.200       4273.800       4271.500       4269.100       4266.500       4264.000       4261.400       4258.400    
   4253.800       4248.400       4240.600       4229.000       4216.000       4206.300       4201.100       4196.700       4188.400       4175.500    
   4162.200       4153.800       4150.200       4143.300       4128.500       4113.800       4105.100       4101.500       4100.200       4100.000    
   4100.000       4100.000       4100.000    
   4380.000       4397.900       4409.100       4405.000       4400.000       4400.000       4400.000       4400.000       4400.000       4400.000    
   4400.000       4400.000       4399.900       4398.600       4394.200       4384.300       4369.900       4357.700       4350.700       4348.000    
   4345.400       4340.700       4332.400       4321.000       4309.900       4302.000       4297.500       4293.400       4289.100       4285.100    
   4281.500       4278.200       4275.300       4272.500       4269.800       4267.100       4264.300       4261.300       4258.200       4255.700    
   4251.300       4244.700       4235.100       4223.000       4211.900       4204.600       4200.400       4195.700       4186.800       4174.400    
   4162.000       4154.100       4150.700       4146.900       4135.600       4121.500       4110.300       4104.300       4101.500       4100.400    
   4100.100       4100.000       4100.000    
   4380.000       4398.200       4409.400       4403.000       4400.000       4400.000       4400.000       4400.000       4400.000       4400.000    
   4400.000       4400.000       4399.900       4398.600       4394.100       4384.300       4371.000       4358.600       4351.300       4349.000    
   4347.100       4343.100       4335.600       4324.600       4312.300       4302.700       4298.100       4294.000       4289.600       4285.600    
   4281.600       4277.900       4274.500       4271.300       4268.300       4265.400       4262.200       4259.000       4255.800       4252.900    
   4248.600       4240.300       4229.100       4217.400       4208.300       4203.300       4199.900       4194.800       4185.900       4173.900    
   4162.700       4155.100       4151.300       4148.900       4142.000       4130.100       4117.900       4109.800       4105.000       4102.400    
   4100.900       4100.200       4100.000    
   4380.000       4405.400       4410.000       4403.000       4400.200       4400.100       4400.000       4400.000       4400.000       4400.000    
   4400.000       4400.000       4399.900       4398.400       4393.300       4383.400       4370.600       4358.900       4351.500       4349.700    
   4348.200       4344.500       4337.300       4326.400       4314.100       4303.500       4298.300       4294.600       4290.300       4285.900    
   4281.600       4277.300       4273.300       4269.800       4266.500       4263.500       4260.300       4257.000       4253.800       4250.800    
   4245.600       4235.900       4223.800       4212.800       4205.900       4201.900       4199.100       4193.900       4185.100       4173.200    
   4162.200       4155.400       4151.900       4150.200       4146.700       4138.500       4127.700       4118.500       4111.800       4107.100    
   4103.900       4101.600       4100.400    
   4380.000       4424.800       4410.000       4403.000       4400.900       4400.600       4400.300       4400.100       4400.000       4400.000    
   4400.000       4400.000       4399.900       4397.900       4392.000       4381.600       4369.100       4358.100       4351.500       4349.600    
   4348.100       4344.600       4337.500       4326.400       4313.900       4303.800       4298.100       4294.900       4290.700       4285.900    
   4280.800       4276.100       4271.800       4267.800       4264.300       4261.300       4258.300       4255.400       4252.300       4249.600    
   4243.300       4232.000       4219.700       4209.900       4204.200       4201.300       4198.900       4193.700       4184.500       4173.100    
   4163.300       4156.600       4152.900       4150.900       4149.400       4144.900       4137.200       4129.200       4121.800       4115.000    
   4108.700       4103.300       4101.100    
   4400.000       4435.000       4417.000       4402.900       4402.300       4401.600       4400.900       4400.400       4400.100       4400.000    
   4400.000       4400.000       4399.800       4397.400       4390.900       4379.900       4366.900       4356.500       4351.300       4349.100    
   4347.200       4343.100       4335.800       4324.800       4312.500       4303.200       4298.200       4294.400       4290.100       4285.000    
   4279.800       4274.800       4269.900       4265.900       4262.400       4259.300       4256.600       4254.300       4252.200       4249.000    
   4241.600       4230.600       4218.400       4209.100       4203.800       4201.100       4199.000       4193.900       4185.100       4174.900    
   4165.800       4159.100       4154.800       4152.100       4150.700       4149.000       4144.800       4139.000       4132.800       4124.400    
   4113.000       4105.900       4103.300    
   4400.000       4435.000       4417.000       4405.200       4404.400       4403.200       4402.100       4401.200       4400.400       4400.100    
   4400.000       4400.000       4399.600       4396.500       4389.000       4377.000       4364.400       4355.300       4350.700       4348.300    
   4345.500       4340.700       4332.500       4321.300       4310.600       4302.800       4298.200       4293.700       4289.000       4283.800    
   4278.300       4272.800       4267.800       4263.800       4260.400       4257.700       4255.600       4253.800       4252.400       4248.400    
   4240.700       4229.800       4217.800       4208.700       4203.600       4201.100       4199.400       4194.500       4187.300       4178.600    
   4169.900       4162.900       4157.900       4154.500       4152.400       4150.800       4149.100       4145.900       4141.500       4132.600    
   4118.300       4110.900       4107.100    
   4400.000       4435.000       4417.000       4408.100       4406.700       4405.100       4403.600       4402.200       4401.100       4400.400    
   4400.000       4400.000       4399.200       4395.200       4386.600       4374.600       4362.600       4354.100       4350.100       4347.600    
   4343.600       4337.400       4328.600       4318.400       4309.200       4302.300       4297.700       4293.000       4287.600       4282.000    
   4276.100       4270.500       4265.600       4261.600       4258.400       4256.300       4254.600       4253.300       4251.400       4248.300    
   4240.800       4229.300       4217.800       4209.300       4204.100       4201.400       4199.900       4196.500       4190.700       4183.300    
   4175.800       4168.300       4162.600       4158.100       4155.000       4152.500       4150.800       4149.300       4146.900       4139.300    
   4126.100       4118.200       4113.100    
   4400.000       4435.000       4417.000       4411.500       4409.400       4407.300       4405.400       4403.500       4401.900       4400.800    
   4400.100       4400.000       4398.700       4394.300       4385.400       4373.300       4361.300       4353.300       4349.500       4346.400    
   4341.700       4334.300       4324.800       4315.500       4307.500       4301.500       4296.900       4292.200       4286.700       4280.700    
   4274.500       4268.800       4263.900       4259.900       4257.000       4255.000       4253.400       4252.000       4250.700       4248.600    
   4241.700       4231.400       4220.400       4211.800       4205.900       4202.400       4200.500       4198.400       4194.300       4188.600    
   4182.200       4175.300       4168.700       4163.000       4158.600       4155.300       4152.700       4151.000       4149.600       4145.400    
   4135.400       4127.500       4122.100    
   4410.000       4420.000       4417.000       4415.000       4412.500       4410.000       4407.500       4405.200       4403.100       4401.400    
   4400.400       4400.000       4398.600       4394.200       4385.400       4373.000       4361.000       4353.000       4349.300       4345.100    
   4339.000       4330.400       4320.500       4311.700       4305.300       4300.700       4296.300       4291.800       4286.300       4280.000    
   4273.700       4267.900       4262.900       4258.900       4256.000       4253.900       4252.300       4251.100       4250.400       4249.100    
   4243.200       4235.000       4225.300       4215.900       4208.600       4204.100       4201.700       4199.900       4197.300       4193.400    
   4188.200       4182.100       4175.800       4169.300       4163.500       4159.100       4155.600       4153.000       4151.200       4149.400    
   4143.900       4137.900       4133.000    
   4403.400       4410.000       4417.000       4418.600       4415.900       4413.000       4410.100       4407.200       4404.500       4402.300    
   4400.800       4400.100       4399.300       4395.800       4388.000       4377.000       4364.900       4354.700       4349.500       4344.700    
   4336.600       4326.200       4315.700       4307.600       4303.000       4299.900       4296.600       4291.600       4285.800       4279.500    
   4273.100       4267.100       4262.200       4258.400       4255.400       4253.200       4251.900       4251.000       4250.500       4249.900    
   4246.100       4239.400       4230.800       4221.600       4213.700       4207.800       4204.200       4201.400       4199.500       4196.900    
   4193.200       4188.000       4182.200       4175.800       4169.500       4164.200       4159.900       4156.200       4153.400       4151.200    
   4149.300       4146.600       4143.500    
   4414.200       4410.200       4417.000       4422.600       4419.500       4416.300       4412.900       4409.500       4406.300       4403.500    
   4401.300       4400.100       4399.900       4398.600       4394.400       4386.900       4374.700       4360.100       4350.400       4344.600    
   4335.100       4322.500       4311.000       4304.100       4301.000       4299.600       4296.600       4291.800       4285.800       4279.200    
   4273.000       4267.300       4262.300       4258.400       4255.500       4253.500       4252.300       4251.700       4251.300       4250.900    
   4249.100       4244.600       4237.300       4229.700       4221.900       4214.500       4208.400       4204.100       4201.200       4199.000    
   4196.300       4192.400       4187.600       4181.900       4176.400       4170.900       4165.900       4161.100       4156.900       4153.300    
   4150.900       4149.800       4148.900    
   4413.000       4424.000       4420.000       4426.600       4423.500       4420.000       4416.300       4412.400       4408.500       4404.800    
   4401.900       4400.300       4400.000       4399.900       4398.800       4395.400       4386.300       4368.700       4351.700       4344.900    
   4333.700       4319.400       4307.900       4301.900       4300.100       4299.600       4296.900       4292.300       4286.600       4280.100    
   4273.900       4268.400       4263.600       4259.600       4256.800       4255.000       4253.800       4253.300       4252.800       4252.500    
   4251.200       4248.000       4243.500       4238.000       4230.700       4222.400       4214.600       4208.100       4203.400       4200.600    
   4198.400       4195.600       4192.000       4187.800       4183.400       4178.500       4173.300       4167.400       4161.500       4156.400    
   4152.500       4150.300       4150.000    
   4415.800       4424.900       4420.000       4430.400       4427.300       4423.700       4419.600       4415.200       4410.600       4406.300    
   4402.700       4400.300       4400.000       4400.000       4400.000       4399.300       4394.400       4375.600       4353.900       4345.900    
   4334.400       4318.400       4306.100       4301.000       4300.000       4299.800       4297.600       4293.200       4287.700       4281.900    
   4276.100       4270.700       4266.000       4262.300       4259.700       4257.800       4256.400       4255.600       4255.100       4255.100    
   4253.600       4250.700       4247.600       4243.900       4238.100       4230.400       4221.900       4213.600       4206.800       4202.600    
   4200.100       4198.000       4195.200       4192.400       4189.400       4185.000       4179.400       4172.800       4165.900       4159.300    
   4154.100       4150.900       4150.000    
   4413.100       4420.900       4420.000       4432.700       4430.700       4426.900       4422.600       4417.900       4412.700       4407.600    
   4402.900       4400.200       4400.000       4400.000       4400.000       4399.900       4397.400       4382.100       4356.200       4347.900    
   4339.100       4321.800       4306.300       4300.500       4300.000       4299.900       4298.400       4294.500       4289.600       4284.300    
   4279.100       4274.200       4269.800       4266.400       4263.900       4261.700       4260.100       4259.100       4258.800       4258.800    
   4256.600       4253.200       4250.400       4247.700       4243.500       4237.200       4228.800       4219.600       4211.400       4205.500    
   4201.900       4199.600       4197.700       4195.900       4193.400       4189.600       4184.400       4177.100       4169.100       4161.400    
   4155.200       4151.400       4150.100    
   4410.000       4421.600       4420.000       4433.400       4433.700       4429.900       4425.600       4420.400       4414.600       4408.100    
   4401.800       4400.000       4400.000       4400.000       4400.000       4400.000       4397.300       4381.000       4357.000       4348.700    
   4340.100       4323.400       4306.600       4300.300       4300.000       4300.000       4299.400       4296.400       4292.100       4287.600    
   4283.100       4278.600       4274.700       4271.500       4269.000       4266.800       4265.100       4264.100       4264.400       4263.500    
   4260.300       4256.300       4252.700       4249.800       4246.500       4241.600       4234.500       4225.800       4216.400       4209.300    
   4204.400       4201.300       4199.400       4198.100       4196.100       4192.700       4187.500       4179.300       4169.100       4160.000    
   4154.200       4151.200       4150.200    
   4410.000       4420.600       4420.000       4436.000       4436.000       4432.400       4427.800       4421.700       4414.300       4405.400    
   4400.500       4400.000       4400.000       4400.000       4400.000       4399.200       4391.800       4370.400       4351.600       4344.700    
   4332.900       4316.500       4303.200       4300.000       4300.000       4300.000       4299.900       4298.700       4295.300       4291.500    
[...]
   4350.000       4350.000       4350.000       4350.100       4352.300       4359.500       4365.900       4365.700       4366.700       4375.800    
   4382.900       4387.900       4391.200       4391.700       4390.300       4389.000       4385.100       4376.600       4365.000       4354.600    
   4348.900       4342.700       4333.400       4322.900       4312.800       4305.600       4299.900       4296.800       4294.000       4289.400    
   4283.000       4275.800       4268.400       4261.800       4256.600       4252.600       4250.800       4250.000       4250.000       4250.000    
   4250.000       4250.000       4250.000    
   4550.000       4550.000       4550.000       4550.000       4520.000       4500.000       4460.000       4449.800       4442.400       4425.100    
   4410.100       4402.500       4397.300       4389.000       4376.400       4363.600       4355.000       4351.200       4350.100       4350.000    
   4350.000       4350.000       4350.100       4351.800       4360.300       4373.900       4384.100       4388.400       4386.500       4391.600    
   4396.100       4397.900       4398.800       4398.700       4398.100       4397.200       4394.600       4389.700       4381.100       4366.900    
   4352.300       4343.400       4334.100       4323.800       4313.900       4306.400       4301.300       4298.500       4295.900       4291.800    
   4286.100       4279.700       4272.800       4265.400       4260.000       4250.000       4250.000       4250.000       4250.000       4250.000    
   4250.000       4250.000       4250.000    
  IDOMAIN LAYERED
    INTERNAL  FACTOR  1  IPRN  5    Idomain layer 1
    0    0    0    0    0    0    0    0    0    0    0    0    0    0    0    0    0    0    0    0
    0    0    0    0    0    0    0    0    0    0    0    0    0    0    0    0    0    0    0    0
    0    0    0    0    0    0    0    0    0    0    0    0    0    0    0    0    0    0    0    0
    0    0    0
    0    0    0    0    0    0    0    0    0    0    0    0    0    0    0    0    0    0    0    0
    0    0    0    0    0    0    0    0    0    0    0    0    0    0    0    0    0    0    0    0
    0    0    0    0    1    1    1    1    1    1    1    1    1    1    1    1    1    1    1    1
    0    0    0
    0    0    0    0    0    0    0    0    0    0    0    0    0    0    0    0    0    0    0    0
    0    0    0    0    0    0    0    0    0    0    0    0    0    0    0    0    0    0    0    0
    0    0    0    1    1    1    1    1    1    1    1    1    1    1    1    1    1    1    1    1
    0    0    0
    0    0    0    0    0    0    0    0    0    0    0    0    0    0    0    0    0    0    0    0
    0    0    0    0    0    0    0    0    0    0    0    0    0    0    0    0    0    0    0    0
    0    0    1    1    1    1    1    1    1    1    1    1    1    1    1    1    1    1    1    1
    1    0    0
    0    0    0    0    0    0    0    0    0    0    0    0    0    0    0    0    0    0    0    0
    0    0    0    0    0    0    0    0    0    0    0    0    0    0    0    0    0    0    0    0
    0    1    1    1    1    1    1    1    1    1    1    1    1    1    1    1    1    1    1    1
    1    0    0
    0    0    0    0    0    0    0    0    0    0    0    0    0    0    0    0    0    0    0    0
    0    0    0    0    0    0    0    0    0    0    0    0    0    0    0    0    0    0    0    1
    1    1    1    1    1    1    1    1    1    1    1    1    1    1    1    1    1    1    1    1
    1    0    0
    0    0    0    0    0    0    0    0    0    0    0    0    0    0    0    0    0    0    0    0
    0    0    0    0    0    0    0    0    0    0    0    0    0    0    0    0    0    0    1    1
    1    1    1    1    1    1    1    1    1    1    1    1    1    1    1    1    1    1    1    1
    1    0    0
    0    0    0    0    0    0    0    0    0    0    0    0    0    0    0    0    0    0    0    0
    0    0    0    0    0    0    0    0    0    0    0    0    0    0    0    0    0    1    1    1
    1    1    1    1    1    1    1    1    1    1    1    1    1    1    1    1    1    1    1    1
    1    0    0
    0    0    0    0    0    0    0    0    0    0    0    0    0    0    0    0    0    0    0    0
    0    0    0    0    0    0    0    0    0    0    0    0    0    0    0    1    1    1    1    1
    1    1    1    1    1    1    1    1    1    1    1    1    1    1    1    1    1    1    1    1
    1    0    0
    0    0    0    0    0    0    0    0    0    0    0    0    0    0    0    0    0    0    0    0
    0    0    0    0    0    0    0    0    0    0    0    0    1    1    1    1    1    1    1    1
    1    1    1    1    1    1    1    1    1    1    1    1    1    1    1    1    1    1    1    1
    1    0    0
    0    0    0    0    0    0    0    0    0    1    1    1    1    1    1    1    1    1    1    1
    1    1    1    1    1    1    1    1    1    1    1    1    1    1    1    1    1    1    1    1
    1    1    1    1    1    1    1    1    1    1    1    1    1    1    1    1    1    1    1    1
    1    0    0
    0    0    0    0    0    0    0    0    0    1    1    1    1    1    1    1    1    1    1    1
    1    1    1    1    1    1    1    1    1    1    1    1    1    1    1    1    1    1    1    1
    1    1    1    1    1    1    1    1    1    1    1    1    1    1    1    1    1    1    1    1
    1    0    0
    0    0    0    0    0    0    0    0    1    1    1    1    1    1    1    1    1    1    1    1
    1    1    1    1    1    1    1    1    1    1    1    1    1    1    1    1    1    1    1    1
    1    1    1    1    1    1    1    1    1    1    1    1    1    1    1    1    1    1    1    1
    1    0    0
    0    0    0    0    0    0    0    1    1    1    1    1    1    1    1    1    1    1    1    1
    1    1    1    1    1    1    1    1    1    1    1    1    1    1    1    1    1    1    1    1
    1    1    1    1    1    1    1    1    1    1    1    1    1    1    1    1    1    1    1    1
    1    0    0
    0    0    0    0    0    0    0    1    1    1    1    1    1    1    1    1    1    1    1    1
    1    1    1    1    1    1    1    1    1    1    1    1    1    1    1    1    1    1    1    1
    1    1    1    1    1    1    1    1    1    1    1    1    1    1    1    1    1    1    1    1
    1    0    0
    0    0    0    1    1    1    1    1    1    1    1    1    1    1    1    1    1    1    1    1
    1    1    1    1    1    1    1    1    1    1    1    1    1    1    1    1    1    1    1    1
    1    1    1    1    1    1    1    1    1    1    1    1    1    1    1    1    1    1    1    1
    1    0    0
    0    0    0    1    1    1    1    1    1    1    1    1    1    1    1    1    1    1    1    1
    1    1    1    1    1    1    1    1    1    1    1    1    1    1    1    1    1    1    1    1
    1    1    1    1    1    1    1    1    1    1    1    1    1    1    1    1    1    1    1    1
    1    0    0
    0    0    0    1    1    1    1    1    1    1    1    1    1    1    1    1    1    1    1    1
    1    1    1    1    1    1    1    1    1    1    1    1    1    1    1    1    1    1    1    1
    1    1    1    1    1    1    1    1    1    1    1    1    1    1    1    1    1    1    1    1
    1    0    0
    0    0    0    1    1    1    1    1    1    1    1    1    1    1    1    1    1    1    1    1
    1    1    1    1    1    1    1    1    1    1    1    1    1    1    1    1    1    1    1    1
    1    1    1    1    1    1    1    1    1    1    1    1    1    1    1    1    1    1    1    1
    1    0    0
    1    1    1    1    1    1    1    1    1    1    1    1    1    1    1    1    1    1    1    1
    1    1    1    1    1    1    1    1    1    1    1    1    1    1    1    1    1    1    1    1
    1    1    1    1    1    1    1    1    1    1    1    1    1    1    1    1    1    1    1    1
    1    0    0
    1    1    1    1    1    1    1    1    1    1    1    1    1    1    1    1    1    1    1    1
    1    1    1    1    1    1    1    1    1    1    1    1    1    1    1    1    1    1    1    1
    1    1    1    1    1    1    1    1    1    1    1    1    1    1    1    1    1    1    1    1
    1    0    0
    1    1    1    1    1    1    1    1    1    1    1    1    1    1    1    1    1    1    1    1
    1    1    1    1    1    1    1    1    1    1    1    1    1    1    1    1    1    1    1    1
    1    1    1    1    1    1    1    1    1    1    1    1    1    1    1    1    1    1    1    1
    1    0    0
    1    1    1    1    1    1    1    1    1    1    1    1    1    1    1    1    1    1    1    1
    1    1    1    1    1    1    1    1    1    1    1    1    1    1    1    1    1    1    1    1
    1    1    1    1    1    1    1    1    1    1    1    1    1    1    1    1    1    1    1    1
    1    0    0
    1    1    1    1    1    1    1    1    1    1    1    1    1    1    1    1    1    1    1    1
    1    1    1    1    1    1    1    1    1    1    1    1    1    1    1    1    1    1    1    1
    1    1    1    1    1    1    1    1    1    1    1    1    1    1    1    1    1    1    1    1
    1    0    0
    1    1    1    1    1    1    1    1    1    1    1    1    1    1    1    1    1    1    1    1
    1    1    1    1    1    1    1    1    1    1    1    1    1    1    1    1    1    1    1    1
    1    1    1    1    1    1    1    1    1    1    1    1    1    1    1    1    1    1    1    1
    1    0    0
    1    1    1    1    1    1    1    1    1    1    1    1    1    1    1    1    1    1    1    1
    1    1    1    1    1    1    1    1    1    1    1    1    1    1    1    1    1    1    1    1
    1    1    1    1    1    1    1    1    1    1    1    1    1    1    1    1    1    1    1    1
    1    0    0
    1    1    1    1    1    1    1    1    1    1    1    1    1    1    1    1    1    1    1    1
    1    1    1    1    1    1    1    1    1    1    1    1    1    1    1    1    1    1    1    1
    1    1    1    1    1    1    1    1    1    1    1    1    1    1    1    1    1    1    1    1
    1    0    0
    1    1    1    1    1    1    1    1    1    1    1    1    1    1    1    1    1    1    1    1
    1    1    1    1    1    1    1    1    1    1    1    1    1    1    1    1    1    1    1    1
    1    1    1    1    1    1    1    1    1    1    1    1    1    1    1    1    1    1    1    1
    1    0    0
    1    1    1    1    1    1    1    1    1    1    1    1    1    1    1    1    1    1    1    1
    1    1    1    1    1    1    1    1    1    1    1    1    1    1    1    1    1    1    1    1
    1    1    1    1    1    1    1    1    1    1    1    1    1    1    1    1    1    1    1    1
    1    0    0
    0    1    1    1    1    1    1    1    1    1    1    1    1    1    1    1    1    1    1    1
    1    1    1    1    1    1    1    1    1    1    1    1    1    1    1    1    1    1    1    1
    1    1    1    1    1    1    1    1    1    1    1    1    1    1    1    1    1    1    1    1
    1    0    0
    0    1    1    1    1    1    1    1    1    1    1    1    1    1    1    1    1    1    1    1
    1    1    1    1    1    1    1    1    1    1    1    1    1    1    1    1    1    1    1    1
    1    1    1    1    1    1    1    1    1    1    1    1    1    1    1    1    1    1    1    1
    1    0    0
    0    1    1    1    1    1    1    1    1    1    1    1    1    1    1    1    1    1    1    1
    1    1    1    1    1    1    1    1    1    1    1    1    1    1    1    1    1    1    1    1
    1    1    1    1    1    1    1    1    1    1    1    1    1    1    1    1    1    1    1    1
    1    0    0
    0    1    1    1    1    1    1    1    1    1    1    1    1    1    1    1    1    1    1    1
    1    1    1    1    1    1    1    1    1    1    1    1    1    1    1    1    1    1    1    1
    1    1    1    1    1    1    1    1    1    1    1    1    1    1    1    1    1    1    1    1
    1    0    0
    0    1    1    1    1    1    1    1    1    1    1    1    1    1    1    1    1    1    1    1
    1    1    1    1    1    1    1    1    1    1    1    1    1    1    1    1    1    1    1    1
    1    1    1    1    1    1    1    1    1    1    1    1    1    1    1    1    1    1    1    1
    1    0    0
    0    1    1    1    1    1    1    1    1    1    1    1    1    1    1    1    1    1    1    1
    1    1    1    1    1    1    1    1    1    1    1    1    1    1    1    1    1    1    1    1
    1    1    1    1    1    1    1    1    1    1    1    1    1    1    1    1    1    1    1    1
    1    0    0
    0    1    1    1    1    1    1    1    1    1    1    1    1    1    1    1    1    1    1    1
    1    1    1    1    1    1    1    1    1    1    1    1    1    1    1    1    1    1    1    1
    1    1    1    1    1    1    1    1    1    1    1    1    1    1    1    1    1    1    1    1
    1    0    0
    0    1    1    1    1    1    1    1    1    1    1    1    1    1    1    1    1    1    1    1
    1    1    1    1    1    1    1    1    1    1    1    1    1    1    1    1    1    1    1    1
    1    1    1    1    1    1    1    1    1    1    1    1    1    1    1    1    1    1    1    1
    1    0    0
    0    1    1    1    1    1    1    1    1    1    1    1    1    1    1    1    1    1    1    1
    1    1    1    1    1    1    1    1    1    1    1    1    1    1    1    1    1    1    1    1
    1    1    1    1    1    1    1    1    1    1    1    1    1    1    1    1    1    1    1    1
    1    0    0
    0    1    1    1    1    1    1    1    1    1    1    1    1    1    1    1    1    1    1    1
    1    1    1    1    1    1    1    1    1    1    1    1    1    1    1    1    1    1    1    1
    1    1    1    1    1    1    1    1    1    1    1    1    1    1    1    1    1    1    1    1
    1    0    0
    0    1    1    1    1    1    1    1    1    1    1    1    1    1    1    1    1    1    1    1
    1    1    1    1    1    1    1    1    1    1    1    1    1    1    1    1    1    1    1    1
    1    1    1    1    1    1    1    1    1    1    1    1    1    1    1    1    1    1    1    1
    1    0    0
    0    1    1    1    1    1    1    1    1    1    1    1    1    1    1    1    1    1    1    1
    1    1    1    1    1    1    1    1    1    1    1    1    1    1    1    1    1    1    1    1
    1    1    1    1    1    1    1    1    1    1    1    1    1    1    1    1    1    1    1    1
    1    0    0
    0    1    1    1    1    1    1    1    1    1    1    1    1    1    1    1    1    1    1    1
    1    1    1    1    1    1    1    1    1    1    1    1    1    1    1    1    1    1    1    1
    1    1    1    1    1    1    1    1    1    1    1    1    1    1    1    1    1    1    1    1
    1    0    0
    0    1    1    1    1    1    1    1    1    1    1    1    1    1    1    1    1    1    1    1
    1    1    1    1    1    1    1    1    1    1    1    1    1    1    1    1    1    1    1    1
    1    1    1    1    1    1    1    1    1    1    1    1    1    1    1    1    1    1    1    1
    1    0    0
    0    1    1    1    1    1    1    1    1    1    1    1    1    1    1    1    1    1    1    1
    1    1    1    1    1    1    1    1    1    1    1    1    1    1    1    1    1    1    1    1
    1    1    1    1    1    1    1    1    1    1    1    1    1    1    1    1    1    1    1    1
    1    0    0
    0    1    1    1    1    1    1    1    1    1    1    1    1    1    1    1    1    1    1    1
    1    1    1    1    1    1    1    1    1    1    1    1    1    1    1    1    1    1    1    1
    1    1    1    1    1    1    1    1    1    1    1    1    1    1    1    1    1    1    1    1
    1    0    0
    0    0    0    0    0    0    1    1    1    1    1    1    1    1    1    1    1    1    1    1
    1    1    1    1    1    1    1    1    1    1    1    1    1    1    1    1    1    1    1    1
    1    1    1    1    1    1    1    1    1    1    1    1    1    1    1    1    1    1    1    1
    1    0    0
    0    0    0    0    0    0    1    1    1    1    1    1    1    1    1    1    1    1    1    1
    1    1    1    1    1    1    1    1    1    1    1    1    1    1    1    1    1    1    1    1
    1    1    1    1    1    1    1    1    1    1    1    1    1    1    1    1    1    1    1    1
    1    0    0
    0    0    0    0    0    0    1    1    1    1    1    1    1    1    1    1    1    1    1    1
    1    1    1    1    1    1    1    1    1    1    1    1    1    1    1    1    1    1    1    1
    1    1    1    1    1    1    1    1    1    1    1    1    1    1    1    1    1    1    1    1
    1    0    0
    0    0    0    0    0    0    1    1    1    1    1    1    1    1    1    1    1    1    1    1
    1    1    1    1    1    1    1    1    1    1    1    1    1    1    1    1    1    1    1    1
    1    1    1    1    1    1    1    1    1    1    1    1    1    1    1    1    1    1    1    1
    1    0    0
    0    0    0    0    0    0    1    1    1    1    1    1    1    1    1    1    1    1    1    1
    1    1    1    1    1    1    1    1    1    1    1    1    1    1    1    1    1    1    1    1
    1    1    1    1    1    1    1    1    1    1    1    1    1    1    1    1    1    1    1    1
    1    0    0
    0    0    0    0    0    0    1    1    1    1    1    1    1    1    1    1    1    1    1    1
    1    1    1    1    1    1    1    1    1    1    1    1    1    1    1    1    1    1    1    1
    1    1    1    1    1    1    1    1    1    1    1    1    1    1    1    1    1    1    1    1
    1    0    0
    0    0    0    0    0    0    1    1    1    1    1    1    1    1    1    1    1    1    1    1
    1    1    1    1    1    1    1    1    1    1    1    1    1    1    1    1    1    1    1    1
    1    1    1    1    1    1    1    1    1    1    1    1    1    1    1    1    1    1    1    1
    1    0    0
    0    0    0    0    0    0    0    1    1    1    1    1    1    1    1    1    1    1    1    1
    1    1    1    1    1    1    1    1    1    1    1    1    1    1    1    1    1    1    1    1
    1    1    1    1    1    1    1    1    1    1    1    1    1    1    1    1    1    1    1    1
    1    0    0
    0    0    0    0    0    0    0    1    1    1    1    1    1    1    1    1    1    1    1    1
    1    1    1    1    1    1    1    1    1    1    1    1    1    1    1    1    1    1    1    1
    1    1    1    1    1    1    1    1    1    1    1    1    1    1    1    1    1    1    1    1
    1    0    0
    0    0    0    0    0    0    0    0    0    0    0    0    0    0    0    0    0    0    0    0
    0    0    0    1    1    1    1    1    1    1    1    1    1    1    1    1    1    1    1    1
    1    1    1    1    1    1    1    1    1    1    1    1    1    1    1    1    1    1    1    1
    1    0    0
    0    0    0    0    0    0    0    0    0    0    0    0    0    0    0    0    0    0    0    0
    0    0    0    1    1    1    1    1    1    1    1    1    1    1    1    1    1    1    1    1
    1    1    1    1    1    1    1    1    1    1    1    1    1    1    1    1    1    1    1    1
    0    0    0
    0    0    0    0    0    0    0    0    0    0    0    0    0    0    0    0    0    0    0    0
    0    0    0    0    0    0    0    0    0    0    0    0    0    0    0    0    0    0    0    0
    0    0    0    0    0    0    0    0    0    0    0    0    0    0    0    0    0    0    0    0
    0    0    0
END GRIDDATA
