# TDIS6 input file, prepared by MF5to6 on 7/11/2022 at 13:49:56.

BEGIN Options
  TIME_UNITS DAYS
END Options

BEGIN Dimensions
  NPER 1
END Dimensions

BEGIN PERIODDATA
    1000.0000               1    1.0000000      Items: PERLEN NSTP TSMULT
END PERIODDATA
