# SFR6 input file, prepared by MF5to6 on 7/11/2022 at 13:49:56.

BEGIN Options
  PRINT_INPUT
  SAVE_FLOWS
  MAXIMUM_DEPTH_CHANGE   0.10000000E-01
  UNIT_CONVERSION    128390.40    
  MOVER
END Options

BEGIN Dimensions
  NREACHES  203
END Dimensions

BEGIN PACKAGEDATA
  # rno cellid rlen           rwid            rgrd            rbtp            rbth            rbhk             man       ncon  ustrf  ndv
  1 1 56 47    1109.500        13.00000       0.3654804E-02    4713.473        1.000000       0.5000000       0.3000000E-01  1  1.0000  0
  2 1 56 46    1109.500        13.00000       0.3654804E-02    4709.417        1.000000       0.5000000       0.3000000E-01  2  1.0000  0
  3 1 55 46    1109.500        13.00000       0.3654804E-02    4705.362        1.000000       0.5000000       0.3000000E-01  2  1.0000  0
  4 1 55 45    1109.500        13.00000       0.3654804E-02    4701.308        1.000000       0.5000000       0.3000000E-01  2  1.0000  0
  5 1 54 45    1109.500        13.00000       0.3654804E-02    4697.252        1.000000       0.5000000       0.3000000E-01  2  1.0000  0
  6 1 54 44    1109.500        13.00000       0.3654804E-02    4693.197        1.000000       0.5000000       0.3000000E-01  2  1.0000  0
  7 1 53 44    1109.500        13.00000       0.3654804E-02    4689.143        1.000000       0.5000000       0.3000000E-01  2  1.0000  0
  8 1 53 43    1109.500        13.00000       0.3654804E-02    4685.087        1.000000       0.5000000       0.3000000E-01  2  1.0000  0
  9 1 53 42    1109.500        13.00000       0.3654804E-02    4681.032        1.000000       0.5000000       0.3000000E-01  2  1.0000  0
  10 1 53 41    1109.500        13.00000       0.3654804E-02    4676.978        1.000000       0.5000000       0.3000000E-01  2  1.0000  0
  11 1 52 41    1109.500        13.00000       0.3654804E-02    4672.922        1.000000       0.5000000       0.3000000E-01  2  1.0000  0
  12 1 51 41    1109.500        13.00000       0.3654804E-02    4668.868        1.000000       0.5000000       0.3000000E-01  2  1.0000  0
  13 1 51 40    1109.500        13.00000       0.3654804E-02    4664.812        1.000000       0.5000000       0.3000000E-01  2  1.0000  0
  14 1 50 40    1109.500        13.00000       0.3654804E-02    4660.757        1.000000       0.5000000       0.3000000E-01  2  1.0000  0
  15 1 50 39    1109.500        13.00000       0.3654804E-02    4656.703        1.000000       0.5000000       0.3000000E-01  2  1.0000  0
  16 1 50 38    1109.500        13.00000       0.3654804E-02    4652.647        1.000000       0.5000000       0.3000000E-01  2  1.0000  0
  17 1 49 38    1109.500        13.00000       0.3654804E-02    4648.592        1.000000       0.5000000       0.3000000E-01  2  1.0000  0
  18 1 49 39    1109.500        13.00000       0.3654804E-02    4644.538        1.000000       0.5000000       0.3000000E-01  2  1.0000  0
  19 1 48 39    1109.500        13.00000       0.3654804E-02    4640.482        1.000000       0.5000000       0.3000000E-01  2  1.0000  0
  20 1 47 39    1109.500        13.00000       0.3654804E-02    4636.427        1.000000       0.5000000       0.3000000E-01  3  1.0000  1
  21 1 47 38    783.5000        13.00000       0.3371644E-02    4627.279        1.000000       0.5000000       0.3000000E-01  2  1.0000  0
  22 1 47 37    783.5000        13.00000       0.3371644E-02    4624.638        1.000000       0.5000000       0.3000000E-01  2  1.0000  0
  23 1 46 37    783.5000        13.00000       0.3371644E-02    4621.996        1.000000       0.5000000       0.3000000E-01  2  1.0000  0
  24 1 46 36    783.5000        13.00000       0.3371644E-02    4619.354        1.000000       0.5000000       0.3000000E-01  2  1.0000  0
  25 1 45 36    783.5000        13.00000       0.3371644E-02    4616.712        1.000000       0.5000000       0.3000000E-01  2  1.0000  0
  26 1 45 35    783.5000        13.00000       0.3371644E-02    4614.071        1.000000       0.5000000       0.3000000E-01  2  1.0000  0
  27 1 44 35    783.5000        13.00000       0.3371644E-02    4611.429        1.000000       0.5000000       0.3000000E-01  2  1.0000  0
  28 1 44 34    783.5000        13.00000       0.3371644E-02    4608.788        1.000000       0.5000000       0.3000000E-01  2  1.0000  0
  29 1 43 34    783.5000        13.00000       0.3371644E-02    4606.146        1.000000       0.5000000       0.3000000E-01  2  1.0000  0
  30 1 42 34    783.5000        13.00000       0.3371644E-02    4603.504        1.000000       0.5000000       0.3000000E-01  2  1.0000  0
  31 1 42 33    783.5000        13.00000       0.3371644E-02    4600.862        1.000000       0.5000000       0.3000000E-01  2  1.0000  0
  32 1 41 33    783.5000        13.00000       0.3371644E-02    4598.221        1.000000       0.5000000       0.3000000E-01  2  1.0000  0
  33 1 42 32    940.3000        13.00000       0.2417024E-02    4587.664        1.000000        0.000000       0.3000000E-01  2  0.0000  0
  34 1 42 31    940.3000        13.00000       0.2417024E-02    4585.391        1.000000        0.000000       0.3000000E-01  2  1.0000  0
  35 1 43 31    940.3000        13.00000       0.2417024E-02    4583.118        1.000000        0.000000       0.3000000E-01  2  1.0000  0
  36 1 43 30    940.3000        13.00000       0.2417024E-02    4580.845        1.000000        0.000000       0.3000000E-01  2  1.0000  0
  37 1 44 30    940.3000        13.00000       0.2417024E-02    4578.573        1.000000        0.000000       0.3000000E-01  2  1.0000  0
  38 1 44 29    940.3000        13.00000       0.2417024E-02    4576.300        1.000000        0.000000       0.3000000E-01  2  1.0000  0
  39 1 44 28    940.3000        13.00000       0.2417024E-02    4574.027        1.000000        0.000000       0.3000000E-01  2  1.0000  0
  40 1 44 27    940.3000        13.00000       0.2417024E-02    4571.754        1.000000        0.000000       0.3000000E-01  2  1.0000  0
  41 1 44 26    940.3000        13.00000       0.2417024E-02    4569.481        1.000000        0.000000       0.3000000E-01  2  1.0000  0
  42 1 43 26    940.3000        13.00000       0.2417024E-02    4567.209        1.000000        0.000000       0.3000000E-01  2  1.0000  0
  43 1 43 25    940.3000        13.00000       0.2417024E-02    4564.936        1.000000        0.000000       0.3000000E-01  1  1.0000  0
  44 1 41 32    1177.500        9.000000       0.1684346E-02    4589.908        1.000000        1.000000       0.3000000E-01  2  1.0000  0
  45 1 41 31    1177.500        9.000000       0.1684346E-02    4587.925        1.000000        1.000000       0.3000000E-01  2  1.0000  0
  46 1 41 30    1177.500        9.000000       0.1684346E-02    4585.941        1.000000        1.000000       0.3000000E-01  2  1.0000  0
  47 1 41 29    1177.500        9.000000       0.1684346E-02    4583.958        1.000000        1.000000       0.3000000E-01  2  1.0000  0
  48 1 41 28    1177.500        9.000000       0.1684346E-02    4581.975        1.000000        1.000000       0.3000000E-01  2  1.0000  0
  49 1 40 28    1177.500        9.000000       0.1684346E-02    4579.992        1.000000        1.000000       0.3000000E-01  3  1.0000  1
  50 1 40 27    1131.000        7.000000       0.2055660E-02    4573.637        1.000000       0.5000000       0.3000000E-01  2  1.0000  0
  51 1 40 26    1131.000        7.000000       0.2055660E-02    4571.312        1.000000       0.5000000       0.3000000E-01  2  1.0000  0
  52 1 39 26    1131.000        7.000000       0.2055660E-02    4568.987        1.000000       0.5000000       0.3000000E-01  2  1.0000  0
  53 1 39 25    1131.000        7.000000       0.2055660E-02    4566.663        1.000000       0.5000000       0.3000000E-01  2  1.0000  0
  54 1 38 25    866.9000        16.00000       0.1541141E-02    4580.032        1.000000        0.000000       0.3000000E-01  2  0.0000  0
  55 1 37 25    866.9000        16.00000       0.1541141E-02    4578.696        1.000000        0.000000       0.3000000E-01  2  1.0000  0
  56 1 37 24    866.9000        16.00000       0.1541141E-02    4577.360        1.000000        0.000000       0.3000000E-01  2  1.0000  0
  57 1 36 24    866.9000        16.00000       0.1541141E-02    4576.024        1.000000        0.000000       0.3000000E-01  2  1.0000  0
  58 1 36 25    866.9000        16.00000       0.1541141E-02    4574.688        1.000000        0.000000       0.3000000E-01  2  1.0000  0
  59 1 35 25    866.9000        16.00000       0.1541141E-02    4573.352        1.000000        0.000000       0.3000000E-01  2  1.0000  0
  60 1 34 25    866.9000        16.00000       0.1541141E-02    4572.016        1.000000        0.000000       0.3000000E-01  2  1.0000  0
  61 1 34 26    866.9000        16.00000       0.1541141E-02    4570.680        1.000000        0.000000       0.3000000E-01  2  1.0000  0
  62 1 33 26    866.9000        16.00000       0.1541141E-02    4569.344        1.000000        0.000000       0.3000000E-01  2  1.0000  0
  63 1 33 27    866.9000        16.00000       0.1541141E-02    4568.008        1.000000        0.000000       0.3000000E-01  2  1.0000  0
  64 1 32 27    866.9000        16.00000       0.1541141E-02    4566.672        1.000000        0.000000       0.3000000E-01  2  1.0000  0
  65 1 32 28    866.9000        16.00000       0.1541141E-02    4565.336        1.000000        0.000000       0.3000000E-01  2  1.0000  0
  66 1 32 29    866.9000        16.00000       0.1541141E-02    4564.000        1.000000        0.000000       0.3000000E-01  2  1.0000  0
  67 1 31 29    866.9000        16.00000       0.1541141E-02    4562.664        1.000000        0.000000       0.3000000E-01  2  1.0000  0
  68 1 31 30    866.9000        16.00000       0.1541141E-02    4561.328        1.000000        0.000000       0.3000000E-01  2  1.0000  0
  69 1 30 30    866.9000        16.00000       0.1541141E-02    4559.992        1.000000        0.000000       0.3000000E-01  2  1.0000  0
  70 1 30 31    866.9000        16.00000       0.1541141E-02    4558.656        1.000000        0.000000       0.3000000E-01  2  1.0000  0
  71 1 29 31    866.9000        16.00000       0.1541141E-02    4557.320        1.000000        0.000000       0.3000000E-01  2  1.0000  0
  72 1 29 32    866.9000        16.00000       0.1541141E-02    4555.984        1.000000        0.000000       0.3000000E-01  2  1.0000  0
  73 1 28 32    866.9000        16.00000       0.1541141E-02    4554.648        1.000000        0.000000       0.3000000E-01  2  1.0000  0
  74 1 28 33    866.9000        16.00000       0.1541141E-02    4553.312        1.000000        0.000000       0.3000000E-01  2  1.0000  0
  75 1 27 33    866.9000        16.00000       0.1541141E-02    4551.976        1.000000        0.000000       0.3000000E-01  2  1.0000  0
  76 1 27 34    866.9000        16.00000       0.1541141E-02    4550.640        1.000000        0.000000       0.3000000E-01  2  1.0000  0
  77 1 26 34    866.9000        16.00000       0.1541141E-02    4549.304        1.000000        0.000000       0.3000000E-01  2  1.0000  0
  78 1 25 34    866.9000        16.00000       0.1541141E-02    4547.968        1.000000        0.000000       0.3000000E-01  1  1.0000  0
  79 1 39 24    1203.700        10.00000       0.1744657E-02    4544.150        1.000000        1.000000       0.3000000E-01  2  1.0000  0
  80 1 39 23    1203.700        10.00000       0.1744657E-02    4542.050        1.000000        1.000000       0.3000000E-01  2  1.0000  0
  81 1 39 22    1203.700        10.00000       0.1744657E-02    4539.950        1.000000        1.000000       0.3000000E-01  2  1.0000  0
  82 1 40 22    1203.700        10.00000       0.1744657E-02    4537.850        1.000000        1.000000       0.3000000E-01  2  1.0000  0
  83 1 40 21    1203.700        10.00000       0.1744657E-02    4535.750        1.000000        1.000000       0.3000000E-01  2  1.0000  0
  84 1 39 21    1203.700        10.00000       0.1744657E-02    4533.650        1.000000        1.000000       0.3000000E-01  2  1.0000  0
  85 1 39 20    1203.700        10.00000       0.1744657E-02    4531.550        1.000000        1.000000       0.3000000E-01  2  1.0000  0
  86 1 38 20    1203.700        10.00000       0.1744657E-02    4529.450        1.000000        1.000000       0.3000000E-01  2  1.0000  0
  87 1 37 20    1203.700        10.00000       0.1744657E-02    4527.350        1.000000        1.000000       0.3000000E-01  3  1.0000  1
  88 1 37 19    1106.800        8.000000       0.3071919E-02    4521.100        1.000000        1.000000       0.3000000E-01  2  1.0000  0
  89 1 37 18    1106.800        8.000000       0.3071919E-02    4517.700        1.000000        1.000000       0.3000000E-01  2  1.0000  0
  90 1 36 18    1106.800        8.000000       0.3071919E-02    4514.300        1.000000        1.000000       0.3000000E-01  2  1.0000  0
  91 1 36 17    1106.800        8.000000       0.3071919E-02    4510.900        1.000000        1.000000       0.3000000E-01  2  1.0000  0
  92 1 36 16    1106.800        8.000000       0.3071919E-02    4507.500        1.000000        1.000000       0.3000000E-01  2  1.0000  0
  93 1 35 18    892.1000        10.00000       0.2092417E-02    4525.967        1.000000        0.000000       0.3000000E-01  2  0.0000  0
  94 1 35 17    892.1000        10.00000       0.2092417E-02    4524.100        1.000000        0.000000       0.3000000E-01  2  1.0000  0
  95 1 34 17    892.1000        10.00000       0.2092417E-02    4522.233        1.000000        0.000000       0.3000000E-01  2  1.0000  0
  96 1 33 17    892.1000        10.00000       0.2092417E-02    4520.367        1.000000        0.000000       0.3000000E-01  2  1.0000  0
  97 1 32 17    892.1000        10.00000       0.2092417E-02    4518.500        1.000000        0.000000       0.3000000E-01  2  1.0000  0
  98 1 31 17    892.1000        10.00000       0.2092417E-02    4516.633        1.000000        0.000000       0.3000000E-01  2  1.0000  0
  99 1 31 18    892.1000        10.00000       0.2092417E-02    4514.767        1.000000        0.000000       0.3000000E-01  2  1.0000  0
  100 1 30 18    892.1000        10.00000       0.2092417E-02    4512.900        1.000000        0.000000       0.3000000E-01  2  1.0000  0
  101 1 29 18    892.1000        10.00000       0.2092417E-02    4511.033        1.000000        0.000000       0.3000000E-01  1  1.0000  0
  102 1 52 7    970.0000        12.00000       0.3739447E-02    4631.986        1.000000       0.1500000       0.3000000E-01  1  1.0000  0
  103 1 52 8    970.0000        12.00000       0.3739447E-02    4628.359        1.000000       0.1500000       0.3000000E-01  2  1.0000  0
  104 1 51 8    970.0000        12.00000       0.3739447E-02    4624.731        1.000000       0.1500000       0.3000000E-01  2  1.0000  0
  105 1 51 9    970.0000        12.00000       0.3739447E-02    4621.104        1.000000       0.1500000       0.3000000E-01  2  1.0000  0
  106 1 50 9    970.0000        12.00000       0.3739447E-02    4617.477        1.000000       0.1500000       0.3000000E-01  2  1.0000  0
  107 1 50 10    970.0000        12.00000       0.3739447E-02    4613.850        1.000000       0.1500000       0.3000000E-01  2  1.0000  0
  108 1 50 11    970.0000        12.00000       0.3739447E-02    4610.223        1.000000       0.1500000       0.3000000E-01  2  1.0000  0
  109 1 49 11    970.0000        12.00000       0.3739447E-02    4606.595        1.000000       0.1500000       0.3000000E-01  2  1.0000  0
  110 1 49 12    970.0000        12.00000       0.3739447E-02    4602.968        1.000000       0.1500000       0.3000000E-01  2  1.0000  0
  111 1 50 12    970.0000        12.00000       0.3739447E-02    4599.341        1.000000       0.1500000       0.3000000E-01  2  1.0000  0
  112 1 50 13    970.0000        12.00000       0.3739447E-02    4595.713        1.000000       0.1500000       0.3000000E-01  2  1.0000  0
  113 1 49 18    821.1000        10.00000       0.2090751E-02    4587.242        1.000000        0.000000       0.3000000E-01  1  1.0000  0
  114 1 50 18    821.1000        10.00000       0.2090751E-02    4585.525        1.000000        0.000000       0.3000000E-01  2  1.0000  0
  115 1 50 17    821.1000        10.00000       0.2090751E-02    4583.808        1.000000        0.000000       0.3000000E-01  2  1.0000  0
  116 1 50 16    821.1000        10.00000       0.2090751E-02    4582.092        1.000000        0.000000       0.3000000E-01  2  1.0000  0
  117 1 50 15    821.1000        10.00000       0.2090751E-02    4580.375        1.000000        0.000000       0.3000000E-01  2  1.0000  0
  118 1 50 14    821.1000        10.00000       0.2090751E-02    4578.658        1.000000        0.000000       0.3000000E-01  2  1.0000  0
  119 1 49 13    1024.800        10.00000       0.3921485E-02    4587.991        1.000000       0.5000000       0.3000000E-01  3  1.0000  0
  120 1 49 14    1024.800        10.00000       0.3921485E-02    4583.972        1.000000       0.5000000       0.3000000E-01  2  1.0000  0
  121 1 49 15    1024.800        10.00000       0.3921485E-02    4579.953        1.000000       0.5000000       0.3000000E-01  2  1.0000  0
  122 1 48 15    1024.800        10.00000       0.3921485E-02    4575.935        1.000000       0.5000000       0.3000000E-01  2  1.0000  0
  123 1 48 16    1024.800        10.00000       0.3921485E-02    4571.916        1.000000       0.5000000       0.3000000E-01  2  1.0000  0
  124 1 48 17    1024.800        10.00000       0.3921485E-02    4567.897        1.000000       0.5000000       0.3000000E-01  2  1.0000  0
  125 1 47 17    1024.800        10.00000       0.3921485E-02    4563.878        1.000000       0.5000000       0.3000000E-01  2  1.0000  0
  126 1 46 17    1024.800        10.00000       0.3921485E-02    4559.859        1.000000       0.5000000       0.3000000E-01  2  1.0000  0
  127 1 46 16    1024.800        10.00000       0.3921485E-02    4555.841        1.000000       0.5000000       0.3000000E-01  2  1.0000  0
  128 1 45 16    1024.800        10.00000       0.3921485E-02    4551.822        1.000000       0.5000000       0.3000000E-01  2  1.0000  0
  129 1 45 15    1024.800        10.00000       0.3921485E-02    4547.803        1.000000       0.5000000       0.3000000E-01  2  1.0000  0
  130 1 45 14    1024.800        10.00000       0.3921485E-02    4543.785        1.000000       0.5000000       0.3000000E-01  2  1.0000  0
  131 1 44 14    1024.800        10.00000       0.3921485E-02    4539.766        1.000000       0.5000000       0.3000000E-01  2  1.0000  0
  132 1 43 14    1024.800        10.00000       0.3921485E-02    4535.747        1.000000       0.5000000       0.3000000E-01  2  1.0000  0
  133 1 43 13    1024.800        10.00000       0.3921485E-02    4531.729        1.000000       0.5000000       0.3000000E-01  2  1.0000  0
  134 1 42 13    1024.800        10.00000       0.3921485E-02    4527.709        1.000000       0.5000000       0.3000000E-01  3  1.0000  1
  135 1 42 12    823.0000        12.00000       0.3170241E-02    4527.396        1.000000        0.000000       0.3000000E-01  2  0.0000  0
  136 1 42 11    823.0000        12.00000       0.3170241E-02    4524.787        1.000000        0.000000       0.3000000E-01  2  1.0000  0
  137 1 42 10    823.0000        12.00000       0.3170241E-02    4522.177        1.000000        0.000000       0.3000000E-01  2  1.0000  0
  138 1 42 9    823.0000        12.00000       0.3170241E-02    4519.568        1.000000        0.000000       0.3000000E-01  2  1.0000  0
  139 1 42 8    823.0000        12.00000       0.3170241E-02    4516.959        1.000000        0.000000       0.3000000E-01  2  1.0000  0
  140 1 41 8    823.0000        12.00000       0.3170241E-02    4514.350        1.000000        0.000000       0.3000000E-01  2  1.0000  0
  141 1 40 8    823.0000        12.00000       0.3170241E-02    4511.741        1.000000        0.000000       0.3000000E-01  2  1.0000  0
  142 1 40 7    823.0000        12.00000       0.3170241E-02    4509.132        1.000000        0.000000       0.3000000E-01  2  1.0000  0
  143 1 39 7    823.0000        12.00000       0.3170241E-02    4506.523        1.000000        0.000000       0.3000000E-01  2  1.0000  0
  144 1 39 6    823.0000        12.00000       0.3170241E-02    4503.914        1.000000        0.000000       0.3000000E-01  2  1.0000  0
  145 1 38 6    823.0000        12.00000       0.3170241E-02    4501.305        1.000000        0.000000       0.3000000E-01  1  1.0000  0
  146 1 41 13    1238.000        10.00000       0.8077545E-03    4520.500        1.000000        1.000000       0.3000000E-01  2  1.0000  0
  147 1 40 13    1238.000        10.00000       0.8077545E-03    4519.500        1.000000        1.000000       0.3000000E-01  3  1.0000  1
  148 1 39 13    857.4000        7.000000       0.2332634E-02    4516.000        1.000000        1.000000       0.3000000E-01  2  1.0000  0
  149 1 38 13    857.4000        7.000000       0.2332634E-02    4514.000        1.000000        1.000000       0.3000000E-01  2  1.0000  0
  150 1 38 14    857.4000        7.000000       0.2332634E-02    4512.000        1.000000        1.000000       0.3000000E-01  2  1.0000  0
  151 1 37 14    857.4000        7.000000       0.2332634E-02    4510.000        1.000000        1.000000       0.3000000E-01  2  1.0000  0
  152 1 36 14    857.4000        7.000000       0.2332634E-02    4508.000        1.000000        1.000000       0.3000000E-01  2  1.0000  0
  153 1 36 15    857.4000        7.000000       0.2332634E-02    4506.000        1.000000        1.000000       0.3000000E-01  2  1.0000  0
  154 1 40 12    762.6000        10.00000       0.3744528E-02    4514.672        1.000000        0.000000       0.3000000E-01  2  0.0000  0
  155 1 39 12    762.6000        10.00000       0.3744528E-02    4511.817        1.000000        0.000000       0.3000000E-01  2  1.0000  0
  156 1 38 12    762.6000        10.00000       0.3744528E-02    4508.961        1.000000        0.000000       0.3000000E-01  2  1.0000  0
  157 1 37 12    762.6000        10.00000       0.3744528E-02    4506.105        1.000000        0.000000       0.3000000E-01  2  1.0000  0
  158 1 37 11    762.6000        10.00000       0.3744528E-02    4503.250        1.000000        0.000000       0.3000000E-01  2  1.0000  0
  159 1 36 11    762.6000        10.00000       0.3744528E-02    4500.395        1.000000        0.000000       0.3000000E-01  2  1.0000  0
  160 1 35 11    762.6000        10.00000       0.3744528E-02    4497.539        1.000000        0.000000       0.3000000E-01  2  1.0000  0
  161 1 34 11    762.6000        10.00000       0.3744528E-02    4494.683        1.000000        0.000000       0.3000000E-01  2  1.0000  0
  162 1 34 10    762.6000        10.00000       0.3744528E-02    4491.828        1.000000        0.000000       0.3000000E-01  1  1.0000  0
  163 1 35 16    1003.100        8.000000       0.2203201E-02    4498.345        1.000000        1.000000       0.3000000E-01  3  1.0000  0
  164 1 35 15    1003.100        8.000000       0.2203201E-02    4496.135        1.000000        1.000000       0.3000000E-01  2  1.0000  0
  165 1 35 14    1003.100        8.000000       0.2203201E-02    4493.925        1.000000        1.000000       0.3000000E-01  2  1.0000  0
  166 1 35 13    1003.100        8.000000       0.2203201E-02    4491.715        1.000000        1.000000       0.3000000E-01  2  1.0000  0
  167 1 34 13    1003.100        8.000000       0.2203201E-02    4489.505        1.000000        1.000000       0.3000000E-01  2  1.0000  0
  168 1 34 12    1003.100        8.000000       0.2203201E-02    4487.295        1.000000        1.000000       0.3000000E-01  2  1.0000  0
  169 1 33 12    1003.100        8.000000       0.2203201E-02    4485.085        1.000000        1.000000       0.3000000E-01  2  1.0000  0
  170 1 33 11    1048.000        8.000000       0.1250056E-02    4480.575        1.000000        1.000000       0.3000000E-01  2  1.0000  0
  171 1 33 10    1048.000        8.000000       0.1250056E-02    4479.265        1.000000        1.000000       0.3000000E-01  2  1.0000  0
  172 1 32 10    1048.000        8.000000       0.1250056E-02    4477.955        1.000000        1.000000       0.3000000E-01  3  1.0000  1
  173 1 31 10    1193.500        10.00000       0.5585812E-03    4479.667        1.000000        0.000000       0.3000000E-01  2  0.0000  0
  174 1 31 9    1193.500        10.00000       0.5585812E-03    4479.000        1.000000        0.000000       0.3000000E-01  2  1.0000  0
  175 1 30 9    1193.500        10.00000       0.5585812E-03    4478.333        1.000000        0.000000       0.3000000E-01  3  1.0000  1
  176 1 30 8    603.2000        4.000000       0.2113767E-02    4478.462        1.000000        0.000000       0.3000000E-01  2  0.0000  0
  177 1 29 8    603.2000        4.000000       0.2113767E-02    4477.188        1.000000        0.000000       0.3000000E-01  2  1.0000  0
  178 1 29 7    603.2000        4.000000       0.2113767E-02    4475.913        1.000000        0.000000       0.3000000E-01  2  1.0000  0
  179 1 28 7    603.2000        4.000000       0.2113767E-02    4474.638        1.000000        0.000000       0.3000000E-01  1  1.0000  0
  180 1 29 9    563.2000        10.00000       0.1065341E-02    4477.700        1.000000        0.000000       0.3000000E-01  2  1.0000  0
  181 1 29 10    563.2000        10.00000       0.1065341E-02    4477.100        1.000000        0.000000       0.3000000E-01  2  1.0000  0
  182 1 28 10    563.2000        10.00000       0.1065341E-02    4476.500        1.000000        0.000000       0.3000000E-01  2  1.0000  0
  183 1 28 11    563.2000        10.00000       0.1065341E-02    4475.900        1.000000        0.000000       0.3000000E-01  2  1.0000  0
  184 1 27 11    563.2000        10.00000       0.1065341E-02    4475.300        1.000000        0.000000       0.3000000E-01  1  1.0000  0
  185 1 32 9    2022.600        16.00000       0.1044472E-02    4475.144        1.000000       0.5000000       0.3000000E-01  2  1.0000  0
  186 1 32 8    2022.600        16.00000       0.1044472E-02    4473.031        1.000000       0.5000000       0.3000000E-01  2  1.0000  0
  187 1 31 8    2022.600        16.00000       0.1044472E-02    4470.919        1.000000       0.5000000       0.3000000E-01  2  1.0000  0
  188 1 31 7    2022.600        16.00000       0.1044472E-02    4468.806        1.000000       0.5000000       0.3000000E-01  2  1.0000  0
  189 1 31 6    2022.600        16.00000       0.1044472E-02    4466.694        1.000000       0.5000000       0.3000000E-01  2  1.0000  0
  190 1 30 6    2022.600        16.00000       0.1044472E-02    4464.581        1.000000       0.5000000       0.3000000E-01  2  1.0000  0
  191 1 30 5    2022.600        16.00000       0.1044472E-02    4462.469        1.000000       0.5000000       0.3000000E-01  2  1.0000  0
  192 1 29 5    2022.600        16.00000       0.1044472E-02    4460.356        1.000000       0.5000000       0.3000000E-01  3  1.0000  1
  193 1 28 5    1787.900        18.00000       0.8110255E-03    4457.975        1.000000        1.000000       0.3000000E-01  2  1.0000  0
  194 1 28 4    1787.900        18.00000       0.8110255E-03    4456.525        1.000000        1.000000       0.3000000E-01  2  1.0000  0
  195 1 28 3    1787.900        18.00000       0.8110255E-03    4455.075        1.000000        1.000000       0.3000000E-01  2  1.0000  0
  196 1 27 3    1787.900        18.00000       0.8110255E-03    4453.625        1.000000        1.000000       0.3000000E-01  2  1.0000  0
  197 1 27 2    1787.900        18.00000       0.8110255E-03    4452.175        1.000000        1.000000       0.3000000E-01  2  1.0000  0
  198 1 26 2    1787.900        18.00000       0.8110255E-03    4450.725        1.000000        1.000000       0.3000000E-01  1  1.0000  0
  199 1 27 5    784.9000        10.00000       0.2038476E-02    4460.200        1.000000        0.000000       0.3000000E-01  2  0.0000  0
  200 1 27 4    784.9000        10.00000       0.2038476E-02    4458.600        1.000000        0.000000       0.3000000E-01  2  1.0000  0
  201 1 26 4    784.9000        10.00000       0.2038476E-02    4457.000        1.000000        0.000000       0.3000000E-01  2  1.0000  0
  202 1 26 3    784.9000        10.00000       0.2038476E-02    4455.400        1.000000        0.000000       0.3000000E-01  2  1.0000  0
  203 1 25 3    784.9000        10.00000       0.2038476E-02    4453.800        1.000000        0.000000       0.3000000E-01  1  1.0000  0
END PACKAGEDATA

BEGIN CONNECTIONDATA
  1 -2
  2 1 -3
  3 2 -4
  4 3 -5
  5 4 -6
  6 5 -7
  7 6 -8
  8 7 -9
  9 8 -10
  10 9 -11
  11 10 -12
  12 11 -13
  13 12 -14
  14 13 -15
  15 14 -16
  16 15 -17
  17 16 -18
  18 17 -19
  19 18 -20
  20 19 -21 -33
  21 20 -22
  22 21 -23
  23 22 -24
  24 23 -25
  25 24 -26
  26 25 -27
  27 26 -28
  28 27 -29
  29 28 -30
  30 29 -31
  31 30 -32
  32 31 -44
  33 -34 20
  34 33 -35
  35 34 -36
  36 35 -37
  37 36 -38
  38 37 -39
  39 38 -40
  40 39 -41
  41 40 -42
  42 41 -43
  43 42
  44 32 -45
  45 44 -46
  46 45 -47
  47 46 -48
  48 47 -49
  49 48 -50 -54
  50 49 -51
  51 50 -52
  52 51 -53
  53 52 -79
  54 -55 49
  55 54 -56
  56 55 -57
  57 56 -58
  58 57 -59
  59 58 -60
  60 59 -61
  61 60 -62
  62 61 -63
  63 62 -64
  64 63 -65
  65 64 -66
  66 65 -67
  67 66 -68
  68 67 -69
  69 68 -70
  70 69 -71
  71 70 -72
  72 71 -73
  73 72 -74
  74 73 -75
  75 74 -76
  76 75 -77
  77 76 -78
  78 77
  79 53 -80
  80 79 -81
  81 80 -82
  82 81 -83
  83 82 -84
  84 83 -85
  85 84 -86
  86 85 -87
  87 86 -88 -93
  88 87 -89
  89 88 -90
  90 89 -91
  91 90 -92
  92 91 -163
  93 -94 87
  94 93 -95
  95 94 -96
  96 95 -97
  97 96 -98
  98 97 -99
  99 98 -100
  100 99 -101
  101 100
  102 -103
  103 102 -104
  104 103 -105
  105 104 -106
  106 105 -107
  107 106 -108
  108 107 -109
  109 108 -110
  110 109 -111
  111 110 -112
  112 111 -119
  113 -114
  114 113 -115
  115 114 -116
  116 115 -117
  117 116 -118
  118 117 -119
  119 112 118 -120
  120 119 -121
  121 120 -122
  122 121 -123
  123 122 -124
  124 123 -125
  125 124 -126
  126 125 -127
  127 126 -128
  128 127 -129
  129 128 -130
  130 129 -131
  131 130 -132
  132 131 -133
  133 132 -134
  134 133 -146 -135
  135 -136 134
  136 135 -137
  137 136 -138
  138 137 -139
  139 138 -140
  140 139 -141
  141 140 -142
  142 141 -143
  143 142 -144
  144 143 -145
  145 144
  146 134 -147
  147 146 -148 -154
  148 147 -149
  149 148 -150
  150 149 -151
  151 150 -152
  152 151 -153
  153 152 -163
  154 -155 147
  155 154 -156
  156 155 -157
  157 156 -158
  158 157 -159
  159 158 -160
  160 159 -161
  161 160 -162
  162 161
  163 92 153 -164
  164 163 -165
  165 164 -166
  166 165 -167
  167 166 -168
  168 167 -169
  169 168 -170
  170 169 -171
  171 170 -172
  172 171 -185 -173
  173 -174 172
  174 173 -175
  175 174 -180 -176
  176 -177 175
  177 176 -178
  178 177 -179
  179 178
  180 175 -181
  181 180 -182
  182 181 -183
  183 182 -184
  184 183
  185 172 -186
  186 185 -187
  187 186 -188
  188 187 -189
  189 188 -190
  190 189 -191
  191 190 -192
  192 191 -193 -199
  193 192 -194
  194 193 -195
  195 194 -196
  196 195 -197
  197 196 -198
  198 197
  199 -200 192
  200 199 -201
  201 200 -202
  202 201 -203
  203 202
END CONNECTIONDATA

BEGIN DIVERSIONS
  # rno idv iconr iprior
  20  1  33  UPTO      
  49  1  54  UPTO      
  87  1  93  UPTO      
  134  1  135  UPTO      
  147  1  154  UPTO      
  172  1  173  UPTO      
  175  1  176  UPTO      
  192  1  199  UPTO      
END DIVERSIONS

BEGIN PERIOD 1
1 inflow   1901000.00000000
20 diversion 1   717120.000000000
49 diversion 1   242784.000000000
87 diversion 1   266976.000000000
102 inflow   301516.000000000
113 inflow   126144.000000000
134 diversion 1   216000.000000000
147 diversion 1   392256.000000000
172 diversion 1   648000.000000000
175 diversion 1   43200.0000000000
192 diversion 1   77760.0000000000
END PERIOD
