                                 MODFLOW-2000
     U.S. GEOLOGICAL SURVEY MODULAR FINITE-DIFFERENCE GROUND-WATER FLOW MODEL
                          VERSION 1.19.01 03/25/2010


This model run combines GLOBAL and LIST output into this single file.

GLOBAL LISTING FILE: M1.out
                        UNIT    6

OPENING M1.bas
FILE TYPE:BAS6   UNIT    1   STATUS:OLD    
FORMAT:FORMATTED              ACCESS:SEQUENTIAL          

OPENING M1.bcf
FILE TYPE:BCF6   UNIT   11   STATUS:OLD    
FORMAT:FORMATTED              ACCESS:SEQUENTIAL          

OPENING M1.wel
FILE TYPE:WEL   UNIT   12   STATUS:OLD    
FORMAT:FORMATTED              ACCESS:SEQUENTIAL          

OPENING M1.drn
FILE TYPE:DRN   UNIT   13   STATUS:OLD    
FORMAT:FORMATTED              ACCESS:SEQUENTIAL          

OPENING M1.riv
FILE TYPE:RIV   UNIT   78   STATUS:OLD    
FORMAT:FORMATTED              ACCESS:SEQUENTIAL          

OPENING M1.evt
FILE TYPE:EVT   UNIT   20   STATUS:OLD    
FORMAT:FORMATTED              ACCESS:SEQUENTIAL          

OPENING M1.ghb
FILE TYPE:GHB   UNIT   37   STATUS:OLD    
FORMAT:FORMATTED              ACCESS:SEQUENTIAL          

OPENING M1.rch
FILE TYPE:RCH   UNIT   18   STATUS:OLD    
FORMAT:FORMATTED              ACCESS:SEQUENTIAL          

OPENING M1.oc
FILE TYPE:OC   UNIT   22   STATUS:OLD    
FORMAT:FORMATTED              ACCESS:SEQUENTIAL          
ILLEGAL FILE TYPE IN NAME FILE: PG4
