                                  MODFLOW-2000
      U.S. GEOLOGICAL SURVEY MODULAR FINITE-DIFFERENCE GROUND-WATER FLOW MODEL
                           VERSION 1.19.01 03/25/2010


 This model run produced both GLOBAL and LIST files.  This is the LIST file.

 
 # MODFLOW2000 Basic Package                                                     
 #MODFLOW Data Set Created by Groundwater Vistas                                 
 #
    1 LAYERS        57 ROWS        63 COLUMNS
    1 STRESS PERIOD(S) IN SIMULATION

 BAS6 -- BASIC PACKAGE, VERSION 6, 1/11/2000 INPUT READ FROM UNIT    1
          5 ELEMENTS IN IR ARRAY ARE USED BY BAS

 WEL6 -- WELL PACKAGE, VERSION 6, 1/11/2000 INPUT READ FROM UNIT   12
 # MODFLOW2000 Well Package
     0 Named Parameters         0 List entries
 MAXIMUM OF     61 ACTIVE WELLS AT ONE TIME
 CELL-BY-CELL FLOWS WILL BE SAVED ON UNIT   54
        244 ELEMENTS IN RX ARRAY ARE USED BY WEL

 DRN6 -- DRAIN PACKAGE, VERSION 6, 1/11/2000 INPUT READ FROM UNIT   13
 # MODFLOW2000 Drain Package
     0 Named Parameters         0 List entries
 MAXIMUM OF      0 ACTIVE DRAINS AT ONE TIME
 CELL-BY-CELL FLOWS WILL BE SAVED ON UNIT   50
          0 ELEMENTS IN RX ARRAY ARE USED BY DRN

 EVT6 -- EVAPOTRANSPIRATION PACKAGE, VERSION 6, 12/14/2000
         INPUT READ FROM UNIT   20
 # MODFLOW2000 Evapotranspiration Package
 No named parameters
 OPTION 1 -- EVAPOTRANSPIRATION FROM TOP LAYER
 CELL-BY-CELL FLOWS WILL BE SAVED ON UNIT   50
      10773 ELEMENTS IN RX ARRAY ARE USED BY EVT
       3591 ELEMENTS IN IR ARRAY ARE USED BY EVT

 RCH6 -- RECHARGE PACKAGE, VERSION 6, 1/11/2000 INPUT READ FROM UNIT   18
 # MODFLOW2000 Recharge Package
 No named parameters
 OPTION 3 -- RECHARGE TO HIGHEST ACTIVE NODE IN EACH VERTICAL COLUMN
 CELL-BY-CELL FLOWS WILL BE SAVED ON UNIT   51
       3591 ELEMENTS IN RX ARRAY ARE USED BY RCH
       3591 ELEMENTS IN IR ARRAY ARE USED BY RCH

 SFR2 -- STREAMFLOW ROUTING PACKAGE, VERSION 2.7, 03/16/2009
         INPUT READ FROM UNIT  81
 # SFR Package for MODFLOW2000


 NUMBER OF STREAM NODES IS  203

 NUMBER OF STREAM SEGMENTS IS   24

 NUMBER OF STREAM PARAMETERS IS    0

 NUMBER OF STREAM SEGMENTS DEFINED USING PARAMETERS IS    0

 MAXIMUM ERROR FOR STREAM LEAKAGE RATES IS  1.00E-02

 CONSTANT FOR MANNINGS EQUATION IS  1.4860E+00


 UNSATURATED FLOW BENEATH STREAMS IS INACTIVE 

       9617 ELEMENTS IN RX ARRAY ARE USED BY SFR2
      14420 ELEMENTS IN RZ ARRAY ARE USED BY SFR2
       1215 ELEMENTS IN IR ARRAY ARE USED BY SFR2

 LAK3 -- LAKE PACKAGE, VERSION 3.2, 1/29/2010 INPUT READ FROM UNIT 44
 SPACE ALLOCATION FOR   1795 GRID CELL FACES ADJACENT TO LAKES
 MAXIMUM NUMBER OF LAKES IS  1 FOR THIS SIMULATION
 CELL-BY-CELL SEEPAGES WILL NOT BE PRINTED OR SAVED


 NEWTON ITERATION METHOD FOR COMPUTING LAKE STAGE DURING STEADY-STATE STRESS PERIODS HAS BEEN MODIFIED:
 SPECIFIED THETA OF  0.000 WILL BE AUTOMATICALLY CHANGED TO 1.0 FOR ALL STEADY STATE STRESS PERIODS.
 MAXIMUM NUMBER OF STEADY-STATE ITERATIONS (NSSITR) =    10
 CLOSURE CRITERIA FOR STEADY-STATE LAKE STAGE (SSCNCR) = 1.000000E-03 MAGNITUDE OF LAKEBED UNDULATIONS (SURFDEPTH) = 0.000000E+00


       7683 ELEMENTS IN RX ARRAY ARE USED BY LAK
         11 ELEMENTS IN RZ ARRAY ARE USED BY LAK
      16215 ELEMENTS IN IR ARRAY ARE USED BY LAK

      32923  ELEMENTS OF RX ARRAY USED OUT OF      32923
      14432  ELEMENTS OF RZ ARRAY USED OUT OF      14432
      24617  ELEMENTS OF IR ARRAY USED OUT OF      24617
1
 # MODFLOW2000 Basic Package                                                     
 #MODFLOW Data Set Created by Groundwater Vistas                                 



                     BOUNDARY ARRAY FOR LAYER   1
 READING ON UNIT    1 WITH FORMAT: (25I3)              

 AQUIFER HEAD WILL BE SET TO  999.00     AT ALL NO-FLOW NODES (IBOUND=0).



                       INITIAL HEAD FOR LAYER   1
 READING ON UNIT    1 WITH FORMAT: (10e12.4)           

 OUTPUT CONTROL IS SPECIFIED EVERY TIME STEP
 HEAD PRINT FORMAT CODE IS   0    DRAWDOWN PRINT FORMAT CODE IS   0
 HEADS WILL BE SAVED ON UNIT   30    DRAWDOWNS WILL BE SAVED ON UNIT   31
1
                            STRESS PERIOD NO.    1, LENGTH =   1000.000    
                            -----------------------------------------------

                              NUMBER OF TIME STEPS =     1

                               MULTIPLIER FOR DELT =     1.000

                            INITIAL TIME STEP SIZE =   1000.000    

 WELL NO.  LAYER   ROW   COL   STRESS RATE         
 --------------------------------------------------
      1      1     45     21     -0.3321E+05
      2      1     40     31     -0.4621E+05
      3      1     40     18     -0.3562E+05
      4      1     39     15     -0.1112E+06
      5      1     43     18     -0.1925E+05
      6      1     42     12     -0.2541E+05
      7      1     41     19     -0.2310E+05
      8      1     31      5     -0.1540E+05
      9      1     27     25     -0.2310E+05
     10      1     24     26      -6738.    
     11      1     41     35     -0.1348E+05
     12      1     41     53     -0.2195E+05
     13      1     41     36     -0.2214E+05
     14      1     29     28     -0.2070E+05
     15      1     27     30     -0.2022E+05
     16      1     42     27     -0.2281E+05
     17      1     48     23      -8664.    
     18      1     47     23     -0.1981E+05
     19      1     44     25     -0.1733E+05
     20      1     41     15      -7220.    
     21      1     21     30     -0.1636E+05
     22      1     22     32     -0.2551E+05
     23      1     28     14     -0.1685E+05
     24      1     25     19     -0.2310E+05
     25      1     39     13     -0.1733E+05
     26      1     38     14     -0.6113E+05
     27      1     44     54      -9626.    
     28      1     23     24     -0.1155E+05
     29      1     23     20     -0.1251E+05
     30      1     24     29     -0.2310E+05
     31      1     23     32     -0.1213E+05
     32      1     29     20      -8664.    
     33      1     28     21      -9626.    
     34      1     42     52     -0.1059E+05
     35      1     41     14     -0.1348E+05
     36      1     45     38     -0.2407E+05
     37      1     26     29     -0.1636E+05
     38      1     26     27     -0.1059E+05
     39      1     23     26      -5776.    
     40      1     26     28     -0.1733E+05
     41      1     43     53     -0.1925E+05
     42      1     36     47     -0.1925E+05
     43      1     40      6     -0.1444E+05
     44      1     24     21      -6738.    
     45      1     25     23     -0.7894E+05
     46      1     25     28     -0.2503E+05
     47      1     30     43     -0.1348E+05
     48      1     40     16     -0.5968E+05
     49      1     40     15      -1444.    
     50      1     27     17     -0.1059E+05
     51      1     44     53     -0.1925E+05
     52      1     27     21     -0.3851E+05
     53      1     52     40     -0.3256E+05
     54      1     42     13      -8664.    
     55      1     20     13     -0.2310E+05
     56      1     21     14     -0.1781E+05
     57      1     22     15     -0.1540E+05
     58      1     23     16     -0.1925E+05
     59      1     24     16      -9145.    
     60      1     39     19     -0.1059E+05
     61      1     39      5     -0.1155E+05

     61 WELLS

      0 DRAINS



                         ET SURFACE
 READING ON UNIT   20 WITH FORMAT: (10e12.4)           

  EVAPOTRANSPIRATION RATE =  1.000000E-02

         EXTINCTION DEPTH =   10.0000    



                           RECHARGE
 READING ON UNIT   18 WITH FORMAT: (10e12.4)           



 CLASSIFICATION & COUNT OF STREAM SEGMENTS BASED ON SOURCE OF INFLOW:

                HEADWATER     DIVERSION     RECEIVES TRIBUTARY FLOW
                ---------     ---------     -----------------------
                    12              0              12

                     INPUT DATA FOR EACH STREAM SEGMENT
 ---------------------------------------------------------------------------------------------

 SEGMENT    SEG.     INFLOW   OVERLAND   STREAM    STREAM   ICALC  OUTFLOW  DIVERSION PRIORITY
    NO.    LENGTH     RATE     RUNOFF      ET       PPT.    METH.  TO SEG.  FROM SEG.    NO.

      1  2.219E+04 0.000E+00 0.000E+00 0.000E+00 0.000E+00    0        2        0        0
      2  9.402E+03 0.000E+00 0.000E+00 0.000E+00 0.000E+00    0        4        0        0
      3  1.034E+04 0.000E+00 0.000E+00 0.000E+00 0.000E+00    0        4        0        0
      4  7.065E+03 0.000E+00 0.000E+00 0.000E+00 0.000E+00    0        5        0        0
      5  4.524E+03 0.000E+00 0.000E+00 0.000E+00 0.000E+00    0        7        0        0
      6  2.167E+04 0.000E+00 0.000E+00 0.000E+00 0.000E+00    0        0        0        0
      7  1.083E+04 0.000E+00 0.000E+00 0.000E+00 0.000E+00    0        8        0        0
      8  5.534E+03 0.000E+00 0.000E+00 0.000E+00 0.000E+00    0       17        0        0
      9  8.029E+03 0.000E+00 0.000E+00 0.000E+00 0.000E+00    0        0        0        0
     10  1.067E+04 0.000E+00 0.000E+00 0.000E+00 0.000E+00    0        0        0        0
     11  4.927E+03 0.000E+00 0.000E+00 0.000E+00 0.000E+00    0       12        0        0
     12  1.640E+04 0.000E+00 0.000E+00 0.000E+00 0.000E+00    0        0        0        0
     13  9.053E+03 0.000E+00 0.000E+00 0.000E+00 0.000E+00    0        0        0        0
     14  2.476E+03 0.000E+00 0.000E+00 0.000E+00 0.000E+00    0       16        0        0
     15  5.144E+03 0.000E+00 0.000E+00 0.000E+00 0.000E+00    0       17        0        0
     16  6.863E+03 0.000E+00 0.000E+00 0.000E+00 0.000E+00    0       18        0        0
     17  7.022E+03 0.000E+00 0.000E+00 0.000E+00 0.000E+00    0       18        0        0
     18  3.144E+03 0.000E+00 0.000E+00 0.000E+00 0.000E+00    0       22        0        0
     19  3.580E+03 0.000E+00 0.000E+00 0.000E+00 0.000E+00    0       22        0        0
     20  2.413E+03 0.000E+00 0.000E+00 0.000E+00 0.000E+00    0       23        0        0
     21  2.816E+03 0.000E+00 0.000E+00 0.000E+00 0.000E+00    0       -1        0        0
     22  1.618E+04 0.000E+00 0.000E+00 0.000E+00 0.000E+00    0       23        0        0
     23  1.073E+04 0.000E+00 0.000E+00 0.000E+00 0.000E+00    0       24        0        0
     24  3.924E+03 0.000E+00 0.000E+00 0.000E+00 0.000E+00    0       23        0        0


         STREAMBED PROPERTIES AND STREAM DIMENSIONS

 SEGMENT     BED HYD. COND.      BED THICKNESS     ELEV.-TOP OF BED     WIDTH OF STREAM     DEPTH OF STREAM    STREAM ROUGHNESS
    No.     UPPER     LOWER     UPPER     LOWER     UPPER     LOWER     UPPER     LOWER     UPPER     LOWER   CHANNEL      BANK

     1  5.000E-01 5.000E-01 1.000E+00 1.000E+00 4.664E+03 4.607E+03 1.300E+01 1.300E+01 6.600E+00 6.600E+00
     2  5.000E-01 5.000E-01 1.000E+00 1.000E+00 4.607E+03 4.590E+03 1.300E+01 1.300E+01 6.600E+00 6.600E+00
     3  5.000E-01 5.000E-01 1.000E+00 1.000E+00 4.590E+03 4.563E+03 1.300E+01 1.300E+01 6.600E+00 6.600E+00
     4  5.000E-01 5.000E-01 1.000E+00 1.000E+00 4.590E+03 4.564E+03 9.000E+00 9.000E+00 6.600E+00 6.600E+00
     5  5.000E-01 5.000E-01 1.000E+00 1.000E+00 4.564E+03 4.552E+03 7.000E+00 7.000E+00 6.600E+00 6.500E+00
     6  5.000E-01 5.000E-01 1.000E+00 1.000E+00 4.552E+03 4.525E+03 1.600E+01 1.600E+01 6.500E+00 6.500E+00
     7  5.000E-01 5.000E-01 1.000E+00 1.000E+00 4.552E+03 4.530E+03 1.000E+01 1.000E+01 6.500E+00 6.500E+00
     8  5.000E-01 5.000E-01 1.000E+00 1.000E+00 4.530E+03 4.511E+03 8.000E+00 8.000E+00 6.500E+00 6.500E+00
     9  5.000E-01 5.000E-01 1.000E+00 1.000E+00 4.516E+03 4.510E+03 1.000E+01 1.800E+01 6.600E+00 6.600E+00
    10  5.000E-01 5.000E-01 1.000E+00 1.000E+00 4.619E+03 4.587E+03 1.200E+01 1.200E+01 6.600E+00 6.600E+00
    11  5.000E-01 5.000E-01 1.000E+00 1.000E+00 4.591E+03 4.587E+03 1.500E+01 1.000E+01 6.600E+00 6.600E+00
    12  5.000E-01 5.000E-01 1.000E+00 1.000E+00 4.587E+03 4.532E+03 1.000E+01 1.000E+01 6.600E+00 6.600E+00
    13  5.000E-01 5.000E-01 1.000E+00 1.000E+00 4.532E+03 4.502E+03 1.200E+01 1.200E+01 6.600E+00 6.600E+00
    14  5.000E-01 5.000E-01 1.000E+00 1.000E+00 4.532E+03 4.502E+03 2.000E+00 2.000E+00 6.600E+00 6.600E+00
    15  5.000E-01 5.000E-01 1.000E+00 1.000E+00 4.516E+03 4.512E+03 7.000E+00 7.000E+00 6.600E+00 6.600E+00
    16  5.000E-01 5.000E-01 1.000E+00 1.000E+00 4.516E+03 4.493E+03 1.000E+01 1.000E+01 6.600E+00 6.600E+00
    17  5.000E-01 5.000E-01 1.000E+00 1.000E+00 4.511E+03 4.492E+03 7.000E+00 7.000E+00 6.500E+00 6.600E+00
    18  5.000E-01 5.000E-01 1.000E+00 1.000E+00 4.492E+03 4.490E+03 8.000E+00 8.000E+00 6.600E+00 6.600E+00
    19  5.000E-01 5.000E-01 1.000E+00 1.000E+00 4.490E+03 4.485E+03 1.000E+01 1.000E+01 6.600E+00 6.600E+00
    20  5.000E-01 5.000E-01 1.000E+00 1.000E+00 4.485E+03 4.472E+03 4.000E+00 4.000E+00 6.600E+00 6.600E+00
    21  5.000E-01 5.000E-01 1.000E+00 1.000E+00 4.485E+03 4.481E+03 1.000E+01 1.000E+01 6.600E+00 6.600E+00
    22  5.000E-01 5.000E-01 1.000E+00 1.000E+00 4.490E+03 4.454E+03 1.600E+01 1.600E+01 6.600E+00 6.600E+00
    23  5.000E-01 5.000E-01 1.000E+00 1.000E+00 4.454E+03 4.442E+03 1.800E+01 1.800E+01 6.600E+00 6.500E+00
    24  5.000E-01 5.000E-01 1.000E+00 1.000E+00 4.454E+03 4.450E+03 1.000E+01 1.000E+01 6.600E+00 6.560E+00





 LAKE PACKAGE ACTIVE:  CALCULATED LAKE STAGE FOR EACH TIME STEP WILL BE STORED IN HNEW ARRAY.



 INITIAL LAKE STAGE:  LAKE    STAGE    SS MIN    SS MAX

                        1  4480.000  4480.000  4480.000




 If any subsequent steady-state stress periods, min. and max. stages for each lake will be read in Record 9a.





                      LAKE ID ARRAY FOR LAYER   1
 READING ON UNIT   44 WITH FORMAT: (25I3)              







             LAKEBED LEAKANCE ARRAY FOR LAYER   1
 READING ON UNIT   44 WITH FORMAT: (10e12.4)           

       LOCATIONS, LAKE #, INTERFACE TYPE FOR GRID CELLS ADJACENT TO LAKES:
     -----------------------------------------------------------------------
     LAYER #    ROW #    COLUMN #   LAKE #  INTERFACE TYPE  LAKEBED LEAKANCE
         1        16         6         1         2           770.00000
         1        17         6         1         2           770.00000
         1        18         6         1         2           770.00000
         1        19         6         1         2           770.00000
         1        20         6         1         2           770.00000
         1        21         6         1         2           770.00000
         1        22         6         1         2           770.00000
         1        23         6         1         2           770.00000
         1        24         6         1         2           770.00000
         1        15         7         1         3           770.00000
         1        16         7         1         6             0.00000
         1        17         7         1         6             0.00000
         1        18         7         1         6             0.00000
         1        19         7         1         6             0.00000
         1        20         7         1         6             0.00000
         1        21         7         1         6             0.00000
         1        22         7         1         6             0.00000
         1        23         7         1         6             0.00000
         1        24         7         1         6             0.00000
         1        25         7         1         2           770.00000
         1        25         7         1         4           770.00000
         1        15         8         1         3           770.00000
         1        16         8         1         6             0.00000
         1        17         8         1         6             0.00000
         1        18         8         1         6             0.00000
         1        19         8         1         6             0.00000
         1        20         8         1         6             0.00000
         1        21         8         1         6             0.00000
         1        22         8         1         6             0.00000
         1        23         8         1         6             0.00000
         1        24         8         1         6             0.00000
         1        25         8         1         6             0.00000
         1        26         8         1         2           770.00000
         1        26         8         1         4           770.00000
         1        15         9         1         3           770.00000
         1        16         9         1         6             0.00000
         1        17         9         1         6             0.00000
         1        18         9         1         6             0.00000
         1        19         9         1         6             0.00000
         1        20         9         1         6             0.00000
         1        21         9         1         6             0.00000
         1        22         9         1         6             0.00000
         1        23         9         1         6             0.00000
         1        24         9         1         6             0.00000
         1        25         9         1         6             0.00000
         1        26         9         1         6             0.00000
         1        27         9         1         2           770.00000
         1        27         9         1         4           770.00000
         1        16        10         1         1           770.00000
         1        16        10         1         3           770.00000
         1        17        10         1         6             0.00000
         1        18        10         1         6             0.00000
         1        19        10         1         6             0.00000
         1        20        10         1         6             0.00000
         1        21        10         1         6             0.00000
         1        22        10         1         6             0.00000
         1        23        10         1         6             0.00000
         1        24        10         1         6             0.00000
         1        25        10         1         6             0.00000
         1        26        10         1         6             0.00000
         1        27        10         1         6             0.00000
         1        28        10         1         4           770.00000
         1        17        11         1         1           770.00000
         1        17        11         1         3           770.00000
         1        18        11         1         6             0.00000
         1        19        11         1         6             0.00000
         1        20        11         1         6             0.00000
         1        21        11         1         6             0.00000
         1        22        11         1         6             0.00000
         1        23        11         1         6             0.00000
         1        24        11         1         6             0.00000
         1        25        11         1         6             0.00000
         1        26        11         1         6             0.00000
         1        27        11         1         1           770.00000
         1        27        11         1         2           770.00000
         1        27        11         1         4           770.00000
         1        18        12         1         1           770.00000
         1        18        12         1         3           770.00000
         1        19        12         1         6             0.00000
         1        20        12         1         6             0.00000
         1        21        12         1         6             0.00000
         1        22        12         1         6             0.00000
         1        23        12         1         6             0.00000
         1        24        12         1         6             0.00000
         1        25        12         1         6             0.00000
         1        26        12         1         6             0.00000
         1        27        12         1         6             0.00000
         1        28        12         1         4           770.00000
         1        19        13         1         1           770.00000
         1        20        13         1         1           770.00000
         1        20        13         1         3           770.00000
         1        21        13         1         6             0.00000
         1        22        13         1         6             0.00000
         1        23        13         1         6             0.00000
         1        24        13         1         6             0.00000
         1        25        13         1         6             0.00000
         1        26        13         1         6             0.00000
         1        27        13         1         1           770.00000
         1        27        13         1         4           770.00000
         1        21        14         1         1           770.00000
         1        21        14         1         3           770.00000
         1        22        14         1         6             0.00000
         1        23        14         1         6             0.00000
         1        24        14         1         6             0.00000
         1        25        14         1         6             0.00000
         1        26        14         1         1           770.00000
         1        26        14         1         4           770.00000
         1        22        15         1         1           770.00000
         1        22        15         1         3           770.00000
         1        23        15         1         6             0.00000
         1        24        15         1         6             0.00000
         1        25        15         1         6             0.00000
         1        26        15         1         4           770.00000
         1        23        16         1         1           770.00000
         1        24        16         1         1           770.00000
         1        25        16         1         1           770.00000

     NUMBER OF LAKE-AQUIFER CELL INTERFACES =   116

 NUMBER OF CONNECTED LAKE SYSTEMS IN SIMULATION IS   0

 LAKE       PRECIP     EVAP     RUNOFF   WITHDRAW   BOTTOM     AREA
----------------------------------------------------------------------
   1     1.767E-04 1.000E-02 0.000E+00  1.780E+06 4.400E+03 7.200E+07




         C               INTERFACE CONDUCTANCES BETWEEN LAKE AND AQUIFER CELLS
   L     O          (IF TYPE = 6, CONDUCTANCE (L^2/T) IS BETWEEN AQUIFER CELL AND OVERLYING LAKE CELL.)
   A     L  L  T    (IF TYPE = 1 TO 4, CONDUCTANCES ARE PER UNIT SATURATED THICKNESS (L/T).)
   Y  R  U  A  Y
   E  O  M  K  P                        LAKEBED      C O N D U C T A N C E S
   R  W  N  E  E     DELTA Y   DELTA X  LEAKANCE   LAKEBED   AQUIFER  COMBINED
 _______________________________________________________________________________
   1 16  6  1  2    1.00E+03  1.00E+03  7.70E+02  7.70E+05  1.54E+03  1.54E+03
   1 17  6  1  2    1.00E+03  1.00E+03  7.70E+02  7.70E+05  1.54E+03  1.54E+03
   1 18  6  1  2    1.00E+03  1.00E+03  7.70E+02  7.70E+05  1.54E+03  1.54E+03
   1 19  6  1  2    1.00E+03  1.00E+03  7.70E+02  7.70E+05  1.54E+03  1.54E+03
   1 20  6  1  2    1.00E+03  1.00E+03  7.70E+02  7.70E+05  1.54E+03  1.54E+03
   1 21  6  1  2    1.00E+03  1.00E+03  7.70E+02  7.70E+05  1.54E+03  1.54E+03
   1 22  6  1  2    1.00E+03  1.00E+03  7.70E+02  7.70E+05  1.54E+03  1.54E+03
   1 23  6  1  2    1.00E+03  1.00E+03  7.70E+02  7.70E+05  1.54E+03  1.54E+03
   1 24  6  1  2    1.00E+03  1.00E+03  7.70E+02  7.70E+05  1.90E+03  1.90E+03
   1 15  7  1  3    1.00E+03  1.00E+03  7.70E+02  7.70E+05  6.30E+02  6.29E+02
   1 16  7  1  6    1.00E+03  1.00E+03  0.00E+00  0.00E+00  0.00E+00  0.00E+00
   1 17  7  1  6    1.00E+03  1.00E+03  0.00E+00  0.00E+00  0.00E+00  0.00E+00
   1 18  7  1  6    1.00E+03  1.00E+03  0.00E+00  0.00E+00  0.00E+00  0.00E+00
   1 19  7  1  6    1.00E+03  1.00E+03  0.00E+00  0.00E+00  0.00E+00  0.00E+00
   1 20  7  1  6    1.00E+03  1.00E+03  0.00E+00  0.00E+00  0.00E+00  0.00E+00
   1 21  7  1  6    1.00E+03  1.00E+03  0.00E+00  0.00E+00  0.00E+00  0.00E+00
   1 22  7  1  6    1.00E+03  1.00E+03  0.00E+00  0.00E+00  0.00E+00  0.00E+00
   1 23  7  1  6    1.00E+03  1.00E+03  0.00E+00  0.00E+00  0.00E+00  0.00E+00
   1 24  7  1  6    1.00E+03  1.00E+03  0.00E+00  0.00E+00  0.00E+00  0.00E+00
   1 25  7  1  2    1.00E+03  1.00E+03  7.70E+02  7.70E+05  1.90E+03  1.90E+03
   1 25  7  1  4    1.00E+03  1.00E+03  7.70E+02  7.70E+05  1.90E+03  1.90E+03
   1 15  8  1  3    1.00E+03  1.00E+03  7.70E+02  7.70E+05  6.30E+02  6.29E+02
   1 16  8  1  6    1.00E+03  1.00E+03  0.00E+00  0.00E+00  0.00E+00  0.00E+00
   1 17  8  1  6    1.00E+03  1.00E+03  0.00E+00  0.00E+00  0.00E+00  0.00E+00
   1 18  8  1  6    1.00E+03  1.00E+03  0.00E+00  0.00E+00  0.00E+00  0.00E+00
   1 19  8  1  6    1.00E+03  1.00E+03  0.00E+00  0.00E+00  0.00E+00  0.00E+00
   1 20  8  1  6    1.00E+03  1.00E+03  0.00E+00  0.00E+00  0.00E+00  0.00E+00
   1 21  8  1  6    1.00E+03  1.00E+03  0.00E+00  0.00E+00  0.00E+00  0.00E+00
   1 22  8  1  6    1.00E+03  1.00E+03  0.00E+00  0.00E+00  0.00E+00  0.00E+00
   1 23  8  1  6    1.00E+03  1.00E+03  0.00E+00  0.00E+00  0.00E+00  0.00E+00
   1 24  8  1  6    1.00E+03  1.00E+03  0.00E+00  0.00E+00  0.00E+00  0.00E+00
   1 25  8  1  6    1.00E+03  1.00E+03  0.00E+00  0.00E+00  0.00E+00  0.00E+00
   1 26  8  1  2    1.00E+03  1.00E+03  7.70E+02  7.70E+05  1.90E+03  1.90E+03
   1 26  8  1  4    1.00E+03  1.00E+03  7.70E+02  7.70E+05  1.90E+03  1.90E+03
   1 15  9  1  3    1.00E+03  1.00E+03  7.70E+02  7.70E+05  6.30E+02  6.29E+02
   1 16  9  1  6    1.00E+03  1.00E+03  0.00E+00  0.00E+00  0.00E+00  0.00E+00
   1 17  9  1  6    1.00E+03  1.00E+03  0.00E+00  0.00E+00  0.00E+00  0.00E+00
   1 18  9  1  6    1.00E+03  1.00E+03  0.00E+00  0.00E+00  0.00E+00  0.00E+00
   1 19  9  1  6    1.00E+03  1.00E+03  0.00E+00  0.00E+00  0.00E+00  0.00E+00
   1 20  9  1  6    1.00E+03  1.00E+03  0.00E+00  0.00E+00  0.00E+00  0.00E+00
   1 21  9  1  6    1.00E+03  1.00E+03  0.00E+00  0.00E+00  0.00E+00  0.00E+00
   1 22  9  1  6    1.00E+03  1.00E+03  0.00E+00  0.00E+00  0.00E+00  0.00E+00
   1 23  9  1  6    1.00E+03  1.00E+03  0.00E+00  0.00E+00  0.00E+00  0.00E+00
   1 24  9  1  6    1.00E+03  1.00E+03  0.00E+00  0.00E+00  0.00E+00  0.00E+00
   1 25  9  1  6    1.00E+03  1.00E+03  0.00E+00  0.00E+00  0.00E+00  0.00E+00
   1 26  9  1  6    1.00E+03  1.00E+03  0.00E+00  0.00E+00  0.00E+00  0.00E+00
   1 27  9  1  2    1.00E+03  1.00E+03  7.70E+02  7.70E+05  1.54E+03  1.54E+03
   1 27  9  1  4    1.00E+03  1.00E+03  7.70E+02  7.70E+05  1.54E+03  1.54E+03
   1 16 10  1  1    1.00E+03  1.00E+03  7.70E+02  7.70E+05  6.30E+02  6.29E+02
   1 16 10  1  3    1.00E+03  1.00E+03  7.70E+02  7.70E+05  6.30E+02  6.29E+02
   1 17 10  1  6    1.00E+03  1.00E+03  0.00E+00  0.00E+00  0.00E+00  0.00E+00
   1 18 10  1  6    1.00E+03  1.00E+03  0.00E+00  0.00E+00  0.00E+00  0.00E+00
   1 19 10  1  6    1.00E+03  1.00E+03  0.00E+00  0.00E+00  0.00E+00  0.00E+00
   1 20 10  1  6    1.00E+03  1.00E+03  0.00E+00  0.00E+00  0.00E+00  0.00E+00
   1 21 10  1  6    1.00E+03  1.00E+03  0.00E+00  0.00E+00  0.00E+00  0.00E+00
   1 22 10  1  6    1.00E+03  1.00E+03  0.00E+00  0.00E+00  0.00E+00  0.00E+00
   1 23 10  1  6    1.00E+03  1.00E+03  0.00E+00  0.00E+00  0.00E+00  0.00E+00
   1 24 10  1  6    1.00E+03  1.00E+03  0.00E+00  0.00E+00  0.00E+00  0.00E+00
   1 25 10  1  6    1.00E+03  1.00E+03  0.00E+00  0.00E+00  0.00E+00  0.00E+00
   1 26 10  1  6    1.00E+03  1.00E+03  0.00E+00  0.00E+00  0.00E+00  0.00E+00
   1 27 10  1  6    1.00E+03  1.00E+03  0.00E+00  0.00E+00  0.00E+00  0.00E+00
   1 28 10  1  4    1.00E+03  1.00E+03  7.70E+02  7.70E+05  1.90E+03  1.90E+03
   1 17 11  1  1    1.00E+03  1.00E+03  7.70E+02  7.70E+05  1.54E+03  1.54E+03
   1 17 11  1  3    1.00E+03  1.00E+03  7.70E+02  7.70E+05  1.54E+03  1.54E+03
   1 18 11  1  6    1.00E+03  1.00E+03  0.00E+00  0.00E+00  0.00E+00  0.00E+00
   1 19 11  1  6    1.00E+03  1.00E+03  0.00E+00  0.00E+00  0.00E+00  0.00E+00
   1 20 11  1  6    1.00E+03  1.00E+03  0.00E+00  0.00E+00  0.00E+00  0.00E+00
   1 21 11  1  6    1.00E+03  1.00E+03  0.00E+00  0.00E+00  0.00E+00  0.00E+00
   1 22 11  1  6    1.00E+03  1.00E+03  0.00E+00  0.00E+00  0.00E+00  0.00E+00
   1 23 11  1  6    1.00E+03  1.00E+03  0.00E+00  0.00E+00  0.00E+00  0.00E+00
   1 24 11  1  6    1.00E+03  1.00E+03  0.00E+00  0.00E+00  0.00E+00  0.00E+00
   1 25 11  1  6    1.00E+03  1.00E+03  0.00E+00  0.00E+00  0.00E+00  0.00E+00
   1 26 11  1  6    1.00E+03  1.00E+03  0.00E+00  0.00E+00  0.00E+00  0.00E+00
   1 27 11  1  1    1.00E+03  1.00E+03  7.70E+02  7.70E+05  1.54E+03  1.54E+03
   1 27 11  1  2    1.00E+03  1.00E+03  7.70E+02  7.70E+05  1.54E+03  1.54E+03
   1 27 11  1  4    1.00E+03  1.00E+03  7.70E+02  7.70E+05  1.54E+03  1.54E+03
   1 18 12  1  1    1.00E+03  1.00E+03  7.70E+02  7.70E+05  1.54E+03  1.54E+03
   1 18 12  1  3    1.00E+03  1.00E+03  7.70E+02  7.70E+05  1.54E+03  1.54E+03
   1 19 12  1  6    1.00E+03  1.00E+03  0.00E+00  0.00E+00  0.00E+00  0.00E+00
   1 20 12  1  6    1.00E+03  1.00E+03  0.00E+00  0.00E+00  0.00E+00  0.00E+00
   1 21 12  1  6    1.00E+03  1.00E+03  0.00E+00  0.00E+00  0.00E+00  0.00E+00
   1 22 12  1  6    1.00E+03  1.00E+03  0.00E+00  0.00E+00  0.00E+00  0.00E+00
   1 23 12  1  6    1.00E+03  1.00E+03  0.00E+00  0.00E+00  0.00E+00  0.00E+00
   1 24 12  1  6    1.00E+03  1.00E+03  0.00E+00  0.00E+00  0.00E+00  0.00E+00
   1 25 12  1  6    1.00E+03  1.00E+03  0.00E+00  0.00E+00  0.00E+00  0.00E+00
   1 26 12  1  6    1.00E+03  1.00E+03  0.00E+00  0.00E+00  0.00E+00  0.00E+00
   1 27 12  1  6    1.00E+03  1.00E+03  0.00E+00  0.00E+00  0.00E+00  0.00E+00
   1 28 12  1  4    1.00E+03  1.00E+03  7.70E+02  7.70E+05  1.90E+03  1.90E+03
   1 19 13  1  1    1.00E+03  1.00E+03  7.70E+02  7.70E+05  6.30E+02  6.29E+02
   1 20 13  1  1    1.00E+03  1.00E+03  7.70E+02  7.70E+05  1.54E+03  1.54E+03
   1 20 13  1  3    1.00E+03  1.00E+03  7.70E+02  7.70E+05  1.54E+03  1.54E+03
   1 21 13  1  6    1.00E+03  1.00E+03  0.00E+00  0.00E+00  0.00E+00  0.00E+00
   1 22 13  1  6    1.00E+03  1.00E+03  0.00E+00  0.00E+00  0.00E+00  0.00E+00
   1 23 13  1  6    1.00E+03  1.00E+03  0.00E+00  0.00E+00  0.00E+00  0.00E+00
   1 24 13  1  6    1.00E+03  1.00E+03  0.00E+00  0.00E+00  0.00E+00  0.00E+00
   1 25 13  1  6    1.00E+03  1.00E+03  0.00E+00  0.00E+00  0.00E+00  0.00E+00
   1 26 13  1  6    1.00E+03  1.00E+03  0.00E+00  0.00E+00  0.00E+00  0.00E+00
   1 27 13  1  1    1.00E+03  1.00E+03  7.70E+02  7.70E+05  1.54E+03  1.54E+03
   1 27 13  1  4    1.00E+03  1.00E+03  7.70E+02  7.70E+05  1.54E+03  1.54E+03
   1 21 14  1  1    1.00E+03  1.00E+03  7.70E+02  7.70E+05  1.54E+03  1.54E+03
   1 21 14  1  3    1.00E+03  1.00E+03  7.70E+02  7.70E+05  1.54E+03  1.54E+03
   1 22 14  1  6    1.00E+03  1.00E+03  0.00E+00  0.00E+00  0.00E+00  0.00E+00
   1 23 14  1  6    1.00E+03  1.00E+03  0.00E+00  0.00E+00  0.00E+00  0.00E+00
   1 24 14  1  6    1.00E+03  1.00E+03  0.00E+00  0.00E+00  0.00E+00  0.00E+00
   1 25 14  1  6    1.00E+03  1.00E+03  0.00E+00  0.00E+00  0.00E+00  0.00E+00
   1 26 14  1  1    1.00E+03  1.00E+03  7.70E+02  7.70E+05  1.54E+03  1.54E+03
   1 26 14  1  4    1.00E+03  1.00E+03  7.70E+02  7.70E+05  1.54E+03  1.54E+03
   1 22 15  1  1    1.00E+03  1.00E+03  7.70E+02  7.70E+05  1.54E+03  1.54E+03
   1 22 15  1  3    1.00E+03  1.00E+03  7.70E+02  7.70E+05  1.54E+03  1.54E+03
   1 23 15  1  6    1.00E+03  1.00E+03  0.00E+00  0.00E+00  0.00E+00  0.00E+00
   1 24 15  1  6    1.00E+03  1.00E+03  0.00E+00  0.00E+00  0.00E+00  0.00E+00
   1 25 15  1  6    1.00E+03  1.00E+03  0.00E+00  0.00E+00  0.00E+00  0.00E+00
   1 26 15  1  4    1.00E+03  1.00E+03  7.70E+02  7.70E+05  1.54E+03  1.54E+03
   1 23 16  1  1    1.00E+03  1.00E+03  7.70E+02  7.70E+05  1.54E+03  1.54E+03
   1 24 16  1  1    1.00E+03  1.00E+03  7.70E+02  7.70E+05  1.54E+03  1.54E+03
   1 25 16  1  1    1.00E+03  1.00E+03  7.70E+02  7.70E+05  1.54E+03  1.54E+03
      LAKE     INFLOWING STREAM SEGMENT
         1                 21

 MAXIMUM NUMBER OF STREAMS INFLOWING TO A LAKE IS    1

      LAKE     OUTFLOWING STREAM SEGMENT

 MAXIMUM NUMBER OF STREAMS OUTFLOWING FROM A LAKE IS    0

 
 SOLVING FOR HEAD 

 AVERAGE SEED = 0.00057732
 MINIMUM SEED = 0.00000003

     5 ITERATION PARAMETERS CALCULATED FROM AVERAGE SEED:

  0.000000E+00 0.844992E+00 0.975972E+00 0.996276E+00 0.999423E+00

 CELL CONVERSIONS FOR ITER.=  2  LAYER=  1  STEP=  1  PERIOD=   1   (ROW,COL)
    DRY(  2, 41)   DRY(  2, 42)   DRY(  2, 43)   DRY(  2, 44)   DRY(  2, 45)   
    DRY(  2, 46)   DRY(  2, 47)   DRY(  2, 48)   DRY(  2, 49)   DRY(  2, 50)   
    DRY(  2, 51)   DRY(  2, 52)   DRY(  3, 40)   DRY(  3, 41)   DRY(  3, 42)   
    DRY(  3, 43)   DRY(  3, 44)   DRY(  3, 45)   DRY(  3, 46)   DRY(  3, 47)   
    DRY(  3, 48)   DRY(  3, 49)   DRY(  3, 50)   DRY(  3, 51)   DRY(  3, 52)   
    DRY(  4, 40)   DRY(  4, 41)   DRY(  4, 42)   DRY(  4, 43)   DRY(  4, 44)   
    DRY(  4, 45)   DRY(  4, 46)   DRY(  4, 47)   DRY(  4, 48)   DRY(  4, 49)   
    DRY(  4, 50)   DRY(  4, 51)   DRY(  4, 52)   DRY(  5, 39)   DRY(  5, 40)   
    DRY(  5, 41)   DRY(  5, 42)   DRY(  5, 43)   DRY(  5, 44)   DRY(  5, 45)   
    DRY(  5, 46)   DRY(  5, 47)   DRY(  5, 48)   DRY(  5, 49)   DRY(  5, 50)   
    DRY(  5, 51)   DRY(  5, 52)   DRY(  6, 38)   DRY(  6, 39)   DRY(  6, 40)   
    DRY(  6, 41)   DRY(  6, 42)   DRY(  6, 43)   DRY(  6, 44)   DRY(  6, 45)   
    DRY(  6, 46)   DRY(  6, 47)   DRY(  6, 48)   DRY(  6, 49)   DRY(  6, 50)   
    DRY(  6, 51)   DRY(  6, 52)   DRY(  6, 53)   DRY(  7, 37)   DRY(  7, 38)   
    DRY(  7, 39)   DRY(  7, 40)   DRY(  7, 41)   DRY(  7, 42)   DRY(  7, 43)   
    DRY(  7, 44)   DRY(  7, 45)   DRY(  7, 46)   DRY(  7, 47)   DRY(  7, 48)   
    DRY(  7, 49)   DRY(  7, 50)   DRY(  7, 51)   DRY(  7, 52)   DRY(  7, 53)   
    DRY(  8, 35)   DRY(  8, 36)   DRY(  8, 37)   DRY(  8, 38)   DRY(  8, 39)   
    DRY(  8, 40)   DRY(  8, 41)   DRY(  8, 42)   DRY(  8, 43)   DRY(  8, 44)   
    DRY(  8, 45)   DRY(  8, 46)   DRY(  8, 47)   DRY(  8, 48)   DRY(  8, 49)   
    DRY(  8, 50)   DRY(  8, 51)   DRY(  8, 52)   DRY(  8, 53)   DRY(  9, 31)   
    DRY(  9, 32)   DRY(  9, 33)   DRY(  9, 34)   DRY(  9, 35)   DRY(  9, 36)   
    DRY(  9, 37)   DRY(  9, 38)   DRY(  9, 39)   DRY(  9, 40)   DRY(  9, 41)   
    DRY(  9, 42)   DRY(  9, 43)   DRY(  9, 44)   DRY(  9, 45)   DRY(  9, 46)   
    DRY(  9, 47)   DRY(  9, 48)   DRY(  9, 49)   DRY(  9, 50)   DRY(  9, 51)   
    DRY(  9, 52)   DRY(  9, 53)   DRY( 10, 29)   DRY( 10, 30)   DRY( 10, 31)   
    DRY( 10, 32)   DRY( 10, 33)   DRY( 10, 34)   DRY( 10, 35)   DRY( 10, 36)   
    DRY( 10, 37)   DRY( 10, 38)   DRY( 10, 39)   DRY( 10, 40)   DRY( 10, 41)   
    DRY( 10, 42)   DRY( 10, 43)   DRY( 10, 44)   DRY( 10, 45)   DRY( 10, 46)   
    DRY( 10, 47)   DRY( 10, 48)   DRY( 10, 49)   DRY( 10, 50)   DRY( 10, 51)   
    DRY( 10, 52)   DRY( 11, 23)   DRY( 11, 24)   DRY( 11, 25)   DRY( 11, 26)   
    DRY( 11, 27)   DRY( 11, 28)   DRY( 11, 29)   DRY( 11, 30)   DRY( 11, 31)   
    DRY( 11, 32)   DRY( 11, 33)   DRY( 11, 34)   DRY( 11, 35)   DRY( 11, 36)   
    DRY( 11, 37)   DRY( 11, 38)   DRY( 11, 39)   DRY( 11, 40)   DRY( 11, 41)   
    DRY( 11, 42)   DRY( 11, 43)   DRY( 11, 44)   DRY( 11, 45)   DRY( 11, 46)   
    DRY( 11, 47)   DRY( 11, 48)   DRY( 11, 49)   DRY( 12, 13)   DRY( 12, 14)   
    DRY( 12, 15)   DRY( 12, 16)   DRY( 12, 17)   DRY( 12, 18)   DRY( 12, 19)   
    DRY( 12, 20)   DRY( 12, 21)   DRY( 12, 22)   DRY( 12, 23)   DRY( 12, 24)   
    DRY( 12, 25)   DRY( 12, 26)   DRY( 12, 27)   DRY( 12, 28)   DRY( 12, 29)   
    DRY( 12, 30)   DRY( 12, 31)   DRY( 12, 32)   DRY( 12, 33)   DRY( 12, 34)   
    DRY( 12, 35)   DRY( 12, 36)   DRY( 12, 37)   DRY( 12, 38)   DRY( 12, 39)   
    DRY( 12, 40)   DRY( 12, 41)   DRY( 12, 42)   DRY( 12, 43)   DRY( 12, 44)   
    DRY( 12, 45)   DRY( 13, 12)   DRY( 13, 13)   DRY( 13, 14)   DRY( 13, 15)   
    DRY( 13, 16)   DRY( 13, 17)   DRY( 13, 18)   DRY( 13, 19)   DRY( 13, 20)   
    DRY( 13, 21)   DRY( 13, 22)   DRY( 13, 23)   DRY( 13, 24)   DRY( 13, 25)   
    DRY( 13, 26)   DRY( 13, 27)   DRY( 13, 28)   DRY( 13, 29)   DRY( 13, 30)   
    DRY( 13, 31)   DRY( 13, 32)   DRY( 13, 33)   DRY( 13, 34)   DRY( 13, 35)   
    DRY( 13, 36)   DRY( 13, 37)   DRY( 13, 38)   DRY( 13, 39)   DRY( 13, 40)   
    DRY( 13, 41)   DRY( 13, 42)   DRY( 13, 43)   DRY( 13, 44)   DRY( 13, 45)   
    DRY( 14, 12)   DRY( 14, 13)   DRY( 14, 14)   DRY( 14, 15)   DRY( 14, 16)   
    DRY( 14, 17)   DRY( 14, 18)   DRY( 14, 19)   DRY( 14, 20)   DRY( 14, 21)   
    DRY( 14, 22)   DRY( 14, 23)   DRY( 14, 24)   DRY( 14, 25)   DRY( 14, 26)   
    DRY( 14, 27)   DRY( 14, 28)   DRY( 14, 29)   DRY( 14, 30)   DRY( 14, 31)   
    DRY( 14, 32)   DRY( 14, 33)   DRY( 14, 34)   DRY( 14, 35)   DRY( 14, 36)   
    DRY( 14, 37)   DRY( 14, 38)   DRY( 14, 39)   DRY( 14, 40)   DRY( 14, 41)   
    DRY( 14, 42)   DRY( 14, 43)   DRY( 15, 13)   DRY( 15, 14)   DRY( 15, 15)   
    DRY( 15, 16)   DRY( 15, 17)   DRY( 15, 18)   DRY( 15, 19)   DRY( 15, 20)   
    DRY( 15, 21)   DRY( 15, 22)   DRY( 15, 23)   DRY( 15, 24)   DRY( 15, 25)   
    DRY( 15, 26)   DRY( 15, 27)   DRY( 15, 28)   DRY( 15, 29)   DRY( 15, 30)   
    DRY( 15, 31)   DRY( 15, 32)   DRY( 15, 33)   DRY( 15, 34)   DRY( 15, 35)   
    DRY( 15, 36)   DRY( 15, 37)   DRY( 15, 38)   DRY( 15, 39)   DRY( 15, 40)   
    DRY( 15, 41)   DRY( 15, 42)   DRY( 15, 43)   DRY( 16, 13)   DRY( 16, 14)   
    DRY( 16, 15)   DRY( 16, 16)   DRY( 16, 17)   DRY( 16, 18)   DRY( 16, 19)   
    DRY( 16, 20)   DRY( 16, 21)   DRY( 16, 22)   DRY( 16, 23)   DRY( 16, 24)   
    DRY( 16, 25)   DRY( 16, 26)   DRY( 16, 27)   DRY( 16, 28)   DRY( 16, 29)   
    DRY( 16, 30)   DRY( 16, 31)   DRY( 16, 32)   DRY( 16, 33)   DRY( 16, 34)   
    DRY( 16, 35)   DRY( 16, 36)   DRY( 16, 37)   DRY( 16, 38)   DRY( 16, 39)   
    DRY( 16, 40)   DRY( 16, 41)   DRY( 16, 42)   DRY( 16, 43)   DRY( 17, 14)   
    DRY( 17, 15)   DRY( 17, 16)   DRY( 17, 17)   DRY( 17, 18)   DRY( 17, 19)   
    DRY( 17, 20)   DRY( 17, 21)   DRY( 17, 22)   DRY( 17, 23)   DRY( 17, 24)   
    DRY( 17, 25)   DRY( 17, 26)   DRY( 17, 27)   DRY( 17, 28)   DRY( 17, 29)   
    DRY( 17, 30)   DRY( 17, 31)   DRY( 17, 32)   DRY( 17, 33)   DRY( 17, 34)   
    DRY( 17, 35)   DRY( 18, 15)   DRY( 18, 16)   DRY( 18, 17)   DRY( 18, 18)   
    DRY( 18, 19)   DRY( 18, 20)   DRY( 18, 21)   DRY( 18, 22)   DRY( 18, 23)   
    DRY( 18, 24)   DRY( 18, 25)   DRY( 18, 26)   DRY( 18, 27)   DRY( 18, 28)   
    DRY( 18, 29)   DRY( 18, 30)   DRY( 18, 31)   DRY( 18, 32)   DRY( 18, 33)   
    DRY( 18, 34)   DRY( 19, 16)   DRY( 19, 17)   DRY( 19, 18)   DRY( 19, 19)   
    DRY( 19, 20)   DRY( 19, 21)   DRY( 19, 22)   DRY( 19, 23)   DRY( 19, 24)   
    DRY( 19, 25)   DRY( 19, 26)   DRY( 19, 27)   DRY( 19, 28)   DRY( 19, 29)   
    DRY( 19, 30)   DRY( 19, 31)   DRY( 19, 32)   DRY( 20, 18)   DRY( 20, 19)   
    DRY( 20, 20)   DRY( 20, 21)   DRY( 20, 22)   DRY( 20, 23)   DRY( 20, 24)   
    DRY( 20, 25)   DRY( 20, 26)   DRY( 44, 59)   DRY( 44, 60)   DRY( 44, 61)   
    DRY( 45, 58)   DRY( 45, 59)   DRY( 45, 60)   DRY( 45, 61)   DRY( 46, 58)   
    DRY( 46, 59)   DRY( 46, 60)   DRY( 46, 61)   DRY( 47, 59)   DRY( 47, 60)   
    DRY( 47, 61)   DRY( 48, 59)   DRY( 48, 60)   DRY( 48, 61)   DRY( 49, 57)   
    DRY( 49, 58)   DRY( 49, 59)   DRY( 49, 60)   DRY( 49, 61)   DRY( 50, 57)   
    DRY( 50, 58)   DRY( 50, 59)   DRY( 50, 60)   DRY( 50, 61)   DRY( 51, 58)   
    DRY( 51, 59)   DRY( 51, 60)   DRY( 51, 61)   DRY( 52, 58)   DRY( 52, 59)   
    DRY( 52, 60)   DRY( 52, 61)   DRY( 53, 58)   DRY( 53, 59)   DRY( 53, 60)   
    DRY( 53, 61)   DRY( 54, 58)   DRY( 54, 59)   DRY( 54, 60)   DRY( 54, 61)   
    DRY( 55, 58)   DRY( 55, 59)   DRY( 55, 60)   DRY( 55, 61)   DRY( 56, 59)   
    DRY( 56, 60)   

 CELL CONVERSIONS FOR ITER.=  6  LAYER=  1  STEP=  1  PERIOD=   1   (ROW,COL)
    DRY( 46,  7)   DRY( 47,  7)   DRY( 47,  8)   

 CELL CONVERSIONS FOR ITER.= 10  LAYER=  1  STEP=  1  PERIOD=   1   (ROW,COL)
    DRY( 46,  8)   

 CELL CONVERSIONS FOR ITER.= 15  LAYER=  1  STEP=  1  PERIOD=   1   (ROW,COL)
    DRY( 45,  2)   DRY( 48,  7)   DRY( 48,  8)   DRY( 49,  7)   DRY( 50,  7)   

 CELL CONVERSIONS FOR ITER.= 16  LAYER=  1  STEP=  1  PERIOD=   1   (ROW,COL)
    DRY( 45,  3)   DRY( 45,  4)   DRY( 45,  5)   DRY( 45,  6)   DRY( 45,  7)   
    DRY( 45,  8)   DRY( 46,  9)   DRY( 47,  9)   DRY( 49,  8)   

 CELL CONVERSIONS FOR ITER.= 21  LAYER=  1  STEP=  1  PERIOD=   1   (ROW,COL)
    DRY( 45,  9)   DRY( 46, 10)   DRY( 48,  9)   DRY( 50,  8)   DRY( 51,  7)   

 CELL CONVERSIONS FOR ITER.= 25  LAYER=  1  STEP=  1  PERIOD=   1   (ROW,COL)
    DRY( 44,  2)   DRY( 44,  8)   

 CELL CONVERSIONS FOR ITER.= 26  LAYER=  1  STEP=  1  PERIOD=   1   (ROW,COL)
    DRY( 44,  3)   DRY( 44,  9)   

 CELL CONVERSIONS FOR ITER.= 27  LAYER=  1  STEP=  1  PERIOD=   1   (ROW,COL)
    DRY( 44,  4)   DRY( 44,  5)   DRY( 44,  6)   DRY( 44,  7)   

 CELL CONVERSIONS FOR ITER.= 31  LAYER=  1  STEP=  1  PERIOD=   1   (ROW,COL)
    DRY( 43, 11)   DRY( 45, 10)   DRY( 47, 10)   DRY( 52,  7)   

 CELL CONVERSIONS FOR ITER.= 32  LAYER=  1  STEP=  1  PERIOD=   1   (ROW,COL)
    DRY( 43, 10)   

 CELL CONVERSIONS FOR ITER.= 34  LAYER=  1  STEP=  1  PERIOD=   1   (ROW,COL)
    DRY( 43,  2)   

 CELL CONVERSIONS FOR ITER.= 35  LAYER=  1  STEP=  1  PERIOD=   1   (ROW,COL)
    DRY( 43,  9)   

 CELL CONVERSIONS FOR ITER.= 36  LAYER=  1  STEP=  1  PERIOD=   1   (ROW,COL)
    DRY( 49,  9)   

 CELL CONVERSIONS FOR ITER.= 40  LAYER=  1  STEP=  1  PERIOD=   1   (ROW,COL)
    DRY( 43, 12)   

 CELL CONVERSIONS FOR ITER.= 41  LAYER=  1  STEP=  1  PERIOD=   1   (ROW,COL)
    DRY( 43,  3)   DRY( 43,  8)   DRY( 43, 13)   DRY( 48, 10)   DRY( 51,  8)   

 CELL CONVERSIONS FOR ITER.= 45  LAYER=  1  STEP=  1  PERIOD=   1   (ROW,COL)
    DRY( 42,  2)   DRY( 42, 13)   

 CELL CONVERSIONS FOR ITER.= 46  LAYER=  1  STEP=  1  PERIOD=   1   (ROW,COL)
    DRY( 43, 14)   

 CELL CONVERSIONS FOR ITER.= 47  LAYER=  1  STEP=  1  PERIOD=   1   (ROW,COL)
    DRY( 42, 12)   

 CELL CONVERSIONS FOR ITER.= 51  LAYER=  1  STEP=  1  PERIOD=   1   (ROW,COL)
    DRY( 43,  4)   DRY( 43,  5)   DRY( 43,  7)   DRY( 44, 10)   DRY( 44, 11)   
    DRY( 44, 12)   DRY( 44, 13)   DRY( 44, 14)   DRY( 45, 11)   DRY( 45, 12)   
    DRY( 45, 13)   DRY( 46, 11)   DRY( 46, 12)   DRY( 47, 11)   DRY( 50,  9)   

 CELL CONVERSIONS FOR ITER.= 55  LAYER=  1  STEP=  1  PERIOD=   1   (ROW,COL)
    DRY( 46, 13)   

 CELL CONVERSIONS FOR ITER.= 56  LAYER=  1  STEP=  1  PERIOD=   1   (ROW,COL)
    DRY( 45, 14)   DRY( 47, 12)   DRY( 49, 10)   

 CELL CONVERSIONS FOR ITER.= 60  LAYER=  1  STEP=  1  PERIOD=   1   (ROW,COL)
    DRY( 42, 14)   DRY( 48, 11)   

 CELL CONVERSIONS FOR ITER.= 61  LAYER=  1  STEP=  1  PERIOD=   1   (ROW,COL)
    DRY( 41,  2)   DRY( 42,  3)   DRY( 42, 10)   DRY( 42, 11)   DRY( 43,  6)   
    DRY( 43, 15)   DRY( 44, 15)   DRY( 52,  8)   

 CELL CONVERSIONS FOR ITER.= 64  LAYER=  1  STEP=  1  PERIOD=   1   (ROW,COL)
    DRY( 51,  9)   

 CELL CONVERSIONS FOR ITER.= 71  LAYER=  1  STEP=  1  PERIOD=   1   (ROW,COL)
    DRY( 46, 14)   DRY( 47, 13)   DRY( 48, 12)   DRY( 49, 11)   DRY( 50, 10)   

 CELL CONVERSIONS FOR ITER.= 80  LAYER=  1  STEP=  1  PERIOD=   1   (ROW,COL)
    DRY( 42, 15)   

 CELL CONVERSIONS FOR ITER.= 81  LAYER=  1  STEP=  1  PERIOD=   1   (ROW,COL)
    DRY( 40,  2)   DRY( 41,  3)   DRY( 42,  4)   DRY( 42,  9)   DRY( 45, 15)   

 CELL CONVERSIONS FOR ITER.= 87  LAYER=  1  STEP=  1  PERIOD=   1   (ROW,COL)
    DRY( 53,  8)   

 CELL CONVERSIONS FOR ITER.= 91  LAYER=  1  STEP=  1  PERIOD=   1   (ROW,COL)
    DRY( 39,  2)   DRY( 42,  5)   DRY( 42,  8)   DRY( 43, 16)   

 CELL CONVERSIONS FOR ITER.= 94  LAYER=  1  STEP=  1  PERIOD=   1   (ROW,COL)
    DRY( 52,  9)   

 CELL CONVERSIONS FOR ITER.= 96  LAYER=  1  STEP=  1  PERIOD=   1   (ROW,COL)
    DRY( 51, 10)   

 CELL CONVERSIONS FOR ITER.=101  LAYER=  1  STEP=  1  PERIOD=   1   (ROW,COL)
    DRY( 25,  2)   DRY( 40,  3)   DRY( 42,  6)   DRY( 42,  7)   DRY( 42, 16)   
    DRY( 44, 16)   

 CELL CONVERSIONS FOR ITER.=102  LAYER=  1  STEP=  1  PERIOD=   1   (ROW,COL)
    DRY( 41, 14)   

 CELL CONVERSIONS FOR ITER.=103  LAYER=  1  STEP=  1  PERIOD=   1   (ROW,COL)
    DRY( 24,  2)   DRY( 28,  2)   

 CELL CONVERSIONS FOR ITER.=106  LAYER=  1  STEP=  1  PERIOD=   1   (ROW,COL)
    DRY( 48, 13)   DRY( 49, 12)   DRY( 50, 11)   

 CELL CONVERSIONS FOR ITER.=111  LAYER=  1  STEP=  1  PERIOD=   1   (ROW,COL)
    DRY( 38,  2)   DRY( 39,  3)   DRY( 41,  4)   DRY( 41,  5)   DRY( 41, 13)   
    DRY( 41, 15)   DRY( 47, 14)   

 CELL CONVERSIONS FOR ITER.=114  LAYER=  1  STEP=  1  PERIOD=   1   (ROW,COL)
    DRY( 29,  2)   

 CELL CONVERSIONS FOR ITER.=115  LAYER=  1  STEP=  1  PERIOD=   1   (ROW,COL)
    DRY( 46, 15)   

 CELL CONVERSIONS FOR ITER.=121  LAYER=  1  STEP=  1  PERIOD=   1   (ROW,COL)
    DRY( 37,  2)   DRY( 38,  3)   DRY( 39,  4)   DRY( 40,  4)   DRY( 40,  5)   
    DRY( 41,  6)   DRY( 41, 11)   DRY( 41, 12)   DRY( 54,  8)   

 CELL CONVERSIONS FOR ITER.=122  LAYER=  1  STEP=  1  PERIOD=   1   (ROW,COL)
    DRY( 39,  5)   DRY( 40,  6)   

 CELL CONVERSIONS FOR ITER.=125  LAYER=  1  STEP=  1  PERIOD=   1   (ROW,COL)
    DRY( 45, 16)   

 CELL CONVERSIONS FOR ITER.=131  LAYER=  1  STEP=  1  PERIOD=   1   (ROW,COL)
    DRY( 32,  2)   DRY( 33,  2)   DRY( 34,  2)   DRY( 35,  2)   DRY( 35,  3)   
    DRY( 36,  2)   DRY( 36,  3)   DRY( 37,  3)   DRY( 38,  4)   DRY( 40, 16)   
    DRY( 41,  7)   DRY( 41,  8)   DRY( 41,  9)   DRY( 41, 10)   DRY( 41, 16)   

 CELL CONVERSIONS FOR ITER.=138  LAYER=  1  STEP=  1  PERIOD=   1   (ROW,COL)
    DRY( 24,  3)   

 CELL CONVERSIONS FOR ITER.=141  LAYER=  1  STEP=  1  PERIOD=   1   (ROW,COL)
    DRY( 31,  2)   DRY( 34,  3)   DRY( 37,  4)   DRY( 43, 17)   

 CELL CONVERSIONS FOR ITER.=143  LAYER=  1  STEP=  1  PERIOD=   1   (ROW,COL)
    DRY( 30,  2)   DRY( 40, 15)   

 CELL CONVERSIONS FOR ITER.=146  LAYER=  1  STEP=  1  PERIOD=   1   (ROW,COL)
    DRY( 42, 17)   DRY( 52, 10)   

 CELL CONVERSIONS FOR ITER.=149  LAYER=  1  STEP=  1  PERIOD=   1   (ROW,COL)
    DRY( 33,  3)   

 CELL CONVERSIONS FOR ITER.=150  LAYER=  1  STEP=  1  PERIOD=   1   (ROW,COL)
    DRY( 24,  4)   DRY( 41, 17)   

 CELL CONVERSIONS FOR ITER.=151  LAYER=  1  STEP=  1  PERIOD=   1   (ROW,COL)
    DRY( 29,  3)   DRY( 36,  4)   DRY( 38,  5)   DRY( 39,  6)   DRY( 40,  7)   
    DRY( 40, 14)   DRY( 40, 17)   DRY( 53,  9)   

 CELL CONVERSIONS FOR ITER.=152  LAYER=  1  STEP=  1  PERIOD=   1   (ROW,COL)
    DRY( 40, 18)   

 CELL CONVERSIONS FOR ITER.=155  LAYER=  1  STEP=  1  PERIOD=   1   (ROW,COL)
    DRY( 41, 19)   

 CELL CONVERSIONS FOR ITER.=156  LAYER=  1  STEP=  1  PERIOD=   1   (ROW,COL)
    DRY( 44, 17)   

 CELL CONVERSIONS FOR ITER.=160  LAYER=  1  STEP=  1  PERIOD=   1   (ROW,COL)
    DRY( 32,  3)   

 CELL CONVERSIONS FOR ITER.=161  LAYER=  1  STEP=  1  PERIOD=   1   (ROW,COL)
    DRY( 35,  4)   DRY( 40,  8)   DRY( 40, 12)   DRY( 40, 13)   DRY( 49, 13)   
    DRY( 50, 12)   DRY( 51, 11)   

 CELL CONVERSIONS FOR ITER.=165  LAYER=  1  STEP=  1  PERIOD=   1   (ROW,COL)
    DRY( 48, 14)   

 CELL CONVERSIONS FOR ITER.=166  LAYER=  1  STEP=  1  PERIOD=   1   (ROW,COL)
    DRY( 47, 15)   

 CELL CONVERSIONS FOR ITER.=168  LAYER=  1  STEP=  1  PERIOD=   1   (ROW,COL)
    DRY( 30,  3)   DRY( 43, 18)   

 CELL CONVERSIONS FOR ITER.=171  LAYER=  1  STEP=  1  PERIOD=   1   (ROW,COL)
    DRY( 29,  4)   DRY( 37,  5)   DRY( 40,  9)   DRY( 40, 10)   DRY( 40, 11)   
    DRY( 46, 16)   

 CELL CONVERSIONS FOR ITER.=176  LAYER=  1  STEP=  1  PERIOD=   1   (ROW,COL)
    DRY( 45, 17)   

 CELL CONVERSIONS FOR ITER.=179  LAYER=  1  STEP=  1  PERIOD=   1   (ROW,COL)
    DRY( 25,  5)   

 CELL CONVERSIONS FOR ITER.=180  LAYER=  1  STEP=  1  PERIOD=   1   (ROW,COL)
    DRY( 40, 19)   

 CELL CONVERSIONS FOR ITER.=181  LAYER=  1  STEP=  1  PERIOD=   1   (ROW,COL)
    DRY( 30,  4)   DRY( 39,  7)   DRY( 41, 20)   

 CELL CONVERSIONS FOR ITER.=186  LAYER=  1  STEP=  1  PERIOD=   1   (ROW,COL)
    DRY( 31,  3)   DRY( 34,  4)   DRY( 38,  6)   DRY( 42, 18)   DRY( 42, 19)   
    DRY( 42, 20)   DRY( 54,  9)   

 DIVIDE BY 0 IN SIP AT LAYER  1,  ROW  41,  COLUMN  18
 THIS CAN OCCUR WHEN A CELL IS CONNECTED TO THE REST OF
 THE MODEL THROUGH A SINGLE CONDUCTANCE BRANCH.  CHECK
 FOR THIS SITUATION AT THE INDICATED CELL.
