 LISTING FILE: M3.out
                         UNIT   6

 OPENING M3.bas
 FILE TYPE:BAS   UNIT   1

 OPENING M3.bcf
 FILE TYPE:BCF   UNIT  11

 OPENING M3.wel
 FILE TYPE:WEL   UNIT  12

 OPENING M3.drn
 FILE TYPE:DRN   UNIT  13

 OPENING M3.riv
 FILE TYPE:RIV   UNIT  78

 OPENING M3.evt
 FILE TYPE:EVT   UNIT  20

 OPENING M3.ghb
 FILE TYPE:GHB   UNIT  37

 OPENING M3.rch
 FILE TYPE:RCH   UNIT  18

 OPENING M3.oc
 FILE TYPE:OC   UNIT  22

 OPENING M3.pcg
 FILE TYPE:PG4   UNIT  14

 OPENING M3.sfr
 FILE TYPE:SFR   UNIT  81

 OPENING M3._s1
 FILE TYPE:DATA   UNIT  72

 OPENING M3._kx
 FILE TYPE:DATA   UNIT  73

 OPENING M3._s2
 FILE TYPE:DATA   UNIT  71

 OPENING M3.cbb
 FILE TYPE:DATA(BINARY)   UNIT  50

 OPENING M3.cbw
 FILE TYPE:DATA(BINARY)   UNIT  54

 OPENING M3.crc
 FILE TYPE:DATA(BINARY)   UNIT  51

 OPENING M3.hds
 FILE TYPE:DATA(BINARY)   UNIT  30

 OPENING M3.ddn
 FILE TYPE:DATA(BINARY)   UNIT  31
1                          MODFLOW-SURFACT/MODHMS Version 3.0
      U.S. GEOLOGICAL SURVEY MODULAR FINITE-DIFFERENCE GROUND-WATER FLOW MODEL
    (HYDROGEOLOGIC'S ENHANCED VERSION OF USGS MODFLOW HYDROLOGIC MODELING SYSTEM)

 MODFLOW2000 Dataset Imported into Groundwater Vistas                                                                                
                                                                                                                                     
     1 LAYERS        57 ROWS        63 COLUMNS
       20 STRESS PERIOD(S) IN SIMULATION
 MODEL TIME UNIT IS DAYS
 CALCULATE FLOW BETWEEN ADJACENT CONSTANT-HEAD CELLS

 I/O UNITS:
 ELEMENT OF IUNIT:   1   2   3   4   5   6   7   8   9  10  11  12  13  14  15  16  17  18  19  20
 PACKAGE NAME    : BCF WEL DRN RIV EVT TLK GHB RCH SIP DE4 SOR OC  PG4 STR PG2 HFB BTN LAK IBS CHD
         I/O UNIT:  11  12  13  78  20   0  37  18   0   0   0  22  14   0   0   0   0   0   0   0

 ELEMENT OF IUNIT:  21  22  23  24  25  26  27  28  29  30  31  32  33  34  35  36  37  38  39  40
 PACKAGE NAME    : FWL ATO PCN HCN OLF CHF PRL OBS GFD FHB IPT RCT SLC LMG PG5 RES WL5 SFR LK3 GAG
         I/O UNIT:   0   0   0   0   0   0   0   0   0   0   0   0   0   0   0   0   0  81   0   0

 ELEMENT OF IUNIT:  41  42
 PACKAGE NAME    : ET2 LUC
         I/O UNIT:   0   0

 BAS5 -- BASIC MODEL PACKAGE, VERSION 5, 1/1/95 INPUT READ FROM UNIT  1
 ARRAYS RHS AND BUFF WILL HAVE SEPARATE MEMORY ALLOCATIONS
 INITIAL HEAD WILL BE KEPT THROUGHOUT THE SIMULATION
        53881 ELEMENTS IN X ARRAY ARE USED BY BAS
        53881 ELEMENTS OF X ARRAY USED

 BCF4 -- BLOCK-CENTERED FLOW PACKAGE, VERSION 4, 7/9/92 INPUT READ FROM UNIT 11
 TRANSIENT SIMULATION
 CELL-BY-CELL FLOWS WILL BE RECORDED ON UNIT 50
 HEAD AT CELLS THAT CONVERT TO DRY= -0.10000E+31
 WETTING CAPABILITY IS NOT ACTIVE
 UPSTREAM DIFFERENCING USED FOR RELATIVE PERMEABILITY
 LEAKANCE VALUES WILL BE READ IN BCF FILE
 ANISOTROPY WITHIN EACH LAYER VARIES CELL-BY-CELL
 RECTANGULAR MODFLOW GRID IS USED
      LAYER  AQUIFER TYPE    INTERBLOCK T
      -------------------------------------
         1         3         0-HARMONIC                
    28728 ELEMENTS IN X ARRAY ARE USED BY BCF
    82609 ELEMENTS OF X ARRAY USED

 WEL1 -- WELL PACKAGE, VERSION 5, 9/1/93 INPUT READ FROM 12
 MAXIMUM OF    0 WELLS
 CELL-BY-CELL FLOWS WILL BE RECORDED ON UNIT 54
        0 ELEMENTS IN X ARRAY ARE USED FOR WELLS
      82609 ELEMENTS OF X ARRAY USED

 DRN1 -- DRAIN PACKAGE, VERSION 1, 9/1/87 INPUT READ FROM UNIT 13
 MAXIMUM OF    0 DRAINS
 CELL-BY-CELL FLOWS WILL BE RECORDED ON UNIT 50
        0 ELEMENTS IN X ARRAY ARE USED FOR DRAINS
      82609 ELEMENTS OF X ARRAY USED

 RSF4 -- RECHARGE SEEPAGE FACE PACKAGE, 12/23/95  INPUT READ FROM UNIT 18
 OPTION 3 -- RECHARGE TO HIGHEST ACTIVE NODE IN EACH VERTICAL COLUMN
 CELL-BY-CELL FLOW TERMS WILL BE RECORDED ON UNIT 51
 MAXIMUM OF    0 SEEPAGE-FACE BOUNDARY NODES
 MAXIMUM OF    0 SEEPAGE-FACE BOUNDARY NODES
       7182 ELEMENTS OF X ARRAY USED FOR RSF4 PACKAGE
      89791 ELEMENTS OF X ARRAY USED

 EVT1 -- EVAPOTRANSPIRATION PACKAGE, VERSION 1, 9/1/87 INPUT READ FROM UNIT 20
 OPTION 1 -- EVAPOTRANSPIRATION FROM TOP LAYER OF GROUNDWATER SYSTEM
 CELL-BY-CELL FLOW TERMS WILL BE SAVED ON UNIT 50
      10773 ELEMENTS OF X ARRAY USED FOR EVAPOTRANSPIRATION
     100564 ELEMENTS OF X ARRAY USED

 RIV1 -- RIVER PACKAGE, VERSION 1, 9/1/87 INPUT READ FROM UNIT 78
 MAXIMUM OF   66 RIVER NODES
      396 ELEMENTS IN X ARRAY ARE USED FOR RIVERS
   100960 ELEMENTS OF X ARRAY USED

 GHB1 -- GHB PACKAGE, VERSION 1, 9/1/87 INPUT READ FROM UNIT 37
 MAXIMUM OF   14 HEAD-DEPENDENT BOUNDARY NODES
       70 ELEMENTS IN X ARRAY ARE USED FOR HEAD-DEPENDENT BOUNDARIES
     101030 ELEMENTS OF X ARRAY USED
0PCG4 -- CONJUGATE GRADIENT SOLUTION PACKAGE, VERSION 3, 10/22/95 INPUT READ FROM UNIT 14
 MAXIMUM OF     100 CALLS OF SOLUTION ROUTINE
 MAXIMUM OF     600 INTERNAL ITERATIONS PER CALL TO SOLUTION ROUTINE
0

                                     SOLUTION BY THE CONJUGATE-GRADIENT METHOD
                                     -------------------------------------------
0                  MAXIMUM NUMBER OF CALLS TO PCG ROUTINE =      100
                       MAXIMUM ITERATIONS PER CALL TO PCG =      600
                 ONLY ACTIVE NODES INCLUDED IN THE SOLVER =        0
                        HEAD CHANGE CRITERION FOR CLOSURE =    0.10000E-01
                    RESIDUAL CHANGE CRITERION FOR CLOSURE =    0.10000E-04
                           SOLVER SUMMARY PRINTOUT INDEX  =        2
0FLOW SOLVER USES N-R METHOD
          BACKTRACKING INDEX (IBACKTR)  =        1
          BACKTRACKING FACTOR  (BFACT)  =    0.90000E+00
    RESIDUAL REDUCTION FACTOR (RESRED)  =    0.10000E+01
                                           INDEX FOR BOTTOM DAMPING (IDMPBOT) =         1
     194534 ELEMENTS IN X ARRAY ARE USED BY PCG
     295564 ELEMENTS OF X ARRAY USED 
      14364 ELEMENTS IN X ARRAY ARE USED FOR TRANSPORT
     309928 ELEMENTS OF X ARRAY USED

 SFR1 -- STREAMFLOW ROUTING PACKAGE, VERSION 1.4, 3/31/2005
         INPUT READ FROM UNIT  81
 # SFR Package for MODFLOW2000


 NUMBER OF STREAM NODES IS    203

 NUMBER OF STREAM SEGMENTS IS     24

 NUMBER OF STREAM PARAMETERS IS    0

 NUMBER OF STREAM SEGMENTS DEFINED USING PARAMETERS IS      0

 MAXIMUM DIFFERENCE IN STREAM HEAD BETWEEN ITERATONS IS   1.00E-02

 CONSTANT FOR MANNINGS EQUATION IS  1.2839E+05



 FLOW TO AND FROM GROUND WATER FOR EACH STREAM REACH WILL BE SAVED ON UNIT   50
 STREAMFLOW OUT OF EACH REACH WILL BE SAVED ON UNIT   58
       8113 ELEMENTS IN RX ARRAY ARE USED BY SFR
       1183 ELEMENTS IN IR ARRAY ARE USED BY SFR
!!!X ARRAY Allocated for     309939 Elements
!!!RX AND IR ARRAYS Allocated for      10333 Elements

 BAS5 -- BASIC MODEL PACKAGE, VERSION 5, 1/1/95 INPUT READ FROM UNIT  1
1
 MODFLOW2000 Dataset Imported into Groundwater Vistas                                                                                
                                                                                                                                     



                     BOUNDARY ARRAY FOR LAYER   1
 READING ON UNIT   1 WITH FORMAT: (25I3)              

 AQUIFER HEAD WILL BE SET TO  999.00     AT ALL NO-FLOW NODES (IBOUND=0).

 DATUM ADJUSTMENT IS    0.00000    



                       INITIAL HEAD FOR LAYER   1
 READING ON UNIT   1 WITH FORMAT: (10e12.4)           
0OC -- OUTPUT CONTROL PACKAGE INPUT READ FROM UNIT 22

 OUTPUT CONTROL IS SPECIFIED EVERY TIME STEP
 HEAD PRINT FORMAT CODE IS   0    DRAWDOWN PRINT FORMAT CODE IS   0

 HEADS WILL BE SAVED ON UNIT 30    DRAWDOWNS WILL BE SAVED ON UNIT 31

 OUTPUT CONTROL IS SPECIFIED EVERY TIME STEP

 BCF3 -- BLOCK-CENTERED FLOW PACKAGE, VERSION 3, 7/9/92 INPUT READ FROM UNIT 11

 COLUMN TO ROW ANISOTROPY =   1.000000     FOR LAYER   1

                     DELR =   1000.000    



                               DELC
 READING ON UNIT  11 WITH FORMAT: (10E12.4)           
   2000.0       1000.0       1000.0       1000.0       1000.0       1000.0       1000.0       1000.0       1000.0       1000.0    
   1000.0       1000.0       1000.0       1000.0       1000.0       1000.0       1000.0       1000.0       1000.0       1000.0    
   1000.0       1000.0       1000.0       1000.0       1000.0       1000.0       1000.0       1000.0       1000.0       1000.0    
   1000.0       1000.0       1000.0       1000.0       1000.0       1000.0       1000.0       1000.0       1000.0       1000.0    
   1000.0       1000.0       1000.0       1000.0       1000.0       1000.0       1000.0       1000.0       1000.0       1000.0    
   1000.0       1000.0       1000.0       1000.0       1000.0       1000.0       1000.0    



               PRIMARY STORAGE COEF FOR LAYER   1
 READING ON UNIT  72 WITH FORMAT: (10e12.4)           



              HYD. COND. ALONG ROWS FOR LAYER   1
 READING ON UNIT  73 WITH FORMAT: (10e12.4)           



                             BOTTOM FOR LAYER   1
 READING ON UNIT  11 WITH FORMAT: (10e12.4)           



             SECONDARY STORAGE COEF FOR LAYER   1
 READING ON UNIT  71 WITH FORMAT: (10e12.4)           



                                TOP FOR LAYER   1
 READING ON UNIT  11 WITH FORMAT: (10e12.4)           

 BAS5 -- BASIC MODEL PACKAGE, VERSION 5, 1/1/95 INPUT READ FROM UNIT  1
1                                                   STRESS PERIOD NO.       1, LENGTH =   210.0000    
                                                    ----------------------------------------------

                                                    NUMBER OF TIME STEPS =       7

                                                     MULTIPLIER FOR DELT =     1.000

                                                  INITIAL TIME STEP SIZE =   30.00000    

 WEL1 -- WELL PACKAGE, VERSION 5, 9/1/93 INPUT READ FROM 12

                  0 WELLS

 DRN1 -- DRAIN PACKAGE, VERSION 1, 9/1/87 INPUT READ FROM UNIT 13



     0 DRAINS

 RSF4 -- RECHARGE SEEPAGE FACE PACKAGE, 12/23/95  INPUT READ FROM UNIT 18



                           RECHARGE
 READING ON UNIT  18 WITH FORMAT: (10e12.4)           



     0 SEEPAGE-FACE BOUNDARY NODES

 EVT1 -- EVAPOTRANSPIRATION PACKAGE, VERSION 1, 9/1/87 INPUT READ FROM UNIT 20



                         ET SURFACE
 READING ON UNIT  20 WITH FORMAT: (10e12.4)           

  EVAPOTRANSPIRATION RATE =   0.000000    

         EXTINCTION DEPTH =   0.000000    

 RIV1 -- RIVER PACKAGE, VERSION 1, 9/1/87 INPUT READ FROM UNIT 78



    66 RIVER REACHES

 LAYER   ROW   COL     STAGE   CONDUCTANCE   BOT. ELEV.  REACH NO.
 -----------------------------------------------------------------
        1     17     7    4480.      0.5000E+06   4440.           1
        1     17     8    4480.      0.5000E+06   4440.           2
        1     18     6    4480.      0.5000E+06   4440.           3
        1     18     7    4480.      0.5000E+06   4440.           4
        1     18     8    4480.      0.5000E+06   4440.           5
        1     18     9    4480.      0.5000E+06   4440.           6
        1     18    10    4480.      0.5000E+06   4440.           7
        1     19     6    4480.      0.5000E+06   4440.           8
        1     19     7    4480.      0.5000E+06   4440.           9
        1     19     8    4480.      0.5000E+06   4440.          10
        1     19     9    4480.      0.5000E+06   4440.          11
        1     19    10    4480.      0.5000E+06   4440.          12
        1     19    11    4480.      0.5000E+06   4440.          13
        1     19    12    4480.      0.5000E+06   4440.          14
        1     20     6    4480.      0.5000E+06   4440.          15
        1     20     7    4480.      0.5000E+06   4440.          16
        1     20     8    4480.      0.5000E+06   4440.          17
        1     20     9    4480.      0.5000E+06   4440.          18
        1     20    10    4480.      0.5000E+06   4440.          19
        1     20    11    4480.      0.5000E+06   4440.          20
        1     20    12    4480.      0.5000E+06   4440.          21
        1     21     6    4480.      0.5000E+06   4440.          22
        1     21     7    4480.      0.5000E+06   4440.          23
        1     21     8    4480.      0.5000E+06   4440.          24
        1     21     9    4480.      0.5000E+06   4440.          25
        1     21    10    4480.      0.5000E+06   4440.          26
        1     21    11    4480.      0.5000E+06   4440.          27
        1     21    12    4480.      0.5000E+06   4440.          28
        1     21    13    4480.      0.5000E+06   4440.          29
        1     22     6    4480.      0.5000E+06   4440.          30
        1     22     7    4480.      0.5000E+06   4440.          31
        1     22     8    4480.      0.5000E+06   4440.          32
        1     22     9    4480.      0.5000E+06   4440.          33
        1     22    10    4480.      0.5000E+06   4440.          34
        1     22    11    4480.      0.5000E+06   4440.          35
        1     22    12    4480.      0.5000E+06   4440.          36
        1     22    13    4480.      0.5000E+06   4440.          37
        1     22    14    4480.      0.5000E+06   4440.          38
        1     23     6    4480.      0.5000E+06   4440.          39
        1     23     7    4480.      0.5000E+06   4440.          40
        1     23     8    4480.      0.5000E+06   4440.          41
        1     23     9    4480.      0.5000E+06   4440.          42
        1     23    10    4480.      0.5000E+06   4440.          43
        1     23    11    4480.      0.5000E+06   4440.          44
        1     23    12    4480.      0.5000E+06   4440.          45
        1     23    13    4480.      0.5000E+06   4440.          46
        1     23    14    4480.      0.5000E+06   4440.          47
        1     23    15    4480.      0.5000E+06   4440.          48
        1     24     7    4480.      0.5000E+06   4440.          49
        1     24     8    4480.      0.5000E+06   4440.          50
        1     24     9    4480.      0.5000E+06   4440.          51
        1     24    10    4480.      0.5000E+06   4440.          52
        1     24    11    4480.      0.5000E+06   4440.          53
        1     24    12    4480.      0.5000E+06   4440.          54
        1     24    13    4480.      0.5000E+06   4440.          55
        1     24    14    4480.      0.5000E+06   4440.          56
        1     24    15    4480.      0.5000E+06   4440.          57
        1     25     8    4480.      0.5000E+06   4440.          58
        1     25     9    4480.      0.5000E+06   4440.          59
        1     25    10    4480.      0.5000E+06   4440.          60
        1     25    11    4480.      0.5000E+06   4440.          61
        1     25    12    4480.      0.5000E+06   4440.          62
        1     25    13    4480.      0.5000E+06   4440.          63
        1     25    14    4480.      0.5000E+06   4440.          64
        1     26    10    4480.      0.5000E+06   4440.          65
        1     26    11    4480.      0.5000E+06   4440.          66

 GHB1 -- GHB PACKAGE, VERSION 1, 9/1/87 INPUT READ FROM UNIT 37



    14 HEAD-DEPENDENT BOUNDARY NODES

 LAYER   ROW   COL   ELEVATION   CONDUCTANCE   BOUND NO.
 -------------------------------------------------------
     1     20     1    4430.         500.0           1
     1     20     2    4430.         500.0           2
     1     20     3    4430.         500.0           3
     1     21     1    4430.         500.0           4
     1     21     2    4430.         500.0           5
     1     21     3    4430.         500.0           6
     1     22     1    4430.         500.0           7
     1     23     1    4430.         500.0           8
     1     24     1    4430.         500.0           9
     1     25     1    4430.         500.0          10
     1     26     1    4430.         500.0          11
     1     27     1    4430.         500.0          12
     1     28     1    4430.         500.0          13
     1     29     1    4430.         500.0          14



 CLASSIFICATION & COUNT OF STREAM SEGMENTS BASED ON SOURCE OF INFLOW:

                HEADWATER     DIVERSION     RECEIVES TRIBUTARY FLOW
                ---------     ---------     -----------------------
                     3              8              13



                    INPUT DATA FOR EACH STREAM SEGMENT
 ---------------------------------------------------------------------------------------------

 SEGMENT    SEG.     INFLOW   OVERLAND   STREAM    STREAM   ICALC  OUTFLOW  DIVERSION PRIORITY
    NO.    LENGTH     RATE     RUNOFF      ET       PPT.    METH.  TO SEG.  FROM SEG.    NO.

      1  2.219E+04 1.520E+06 0.000E+00 0.000E+00 0.000E+00    1        2        0        0
      2  9.402E+03 0.000E+00 0.000E+00 0.000E+00 0.000E+00    1        4        0        0
      3  1.034E+04 0.000E+00 0.000E+00 0.000E+00 0.000E+00    1        0        1        0
      4  7.065E+03 0.000E+00 0.000E+00 0.000E+00 0.000E+00    1        5        0        0
      5  4.524E+03 0.000E+00 0.000E+00 0.000E+00 0.000E+00    1        7        0        0
      6  2.167E+04 3.928E+05 0.000E+00 0.000E+00 0.000E+00    1        0        4        0
      7  1.083E+04 0.000E+00 0.000E+00 0.000E+00 0.000E+00    1        8        0        0
      8  5.534E+03 0.000E+00 0.000E+00 0.000E+00 0.000E+00    1       17        0        0
      9  8.029E+03 0.000E+00 0.000E+00 0.000E+00 0.000E+00    1        0        7        0
     10  1.067E+04 3.234E+05 0.000E+00 0.000E+00 0.000E+00    1       12        0        0
     11  4.927E+03 1.296E+05 0.000E+00 0.000E+00 0.000E+00    1       12        0        0
     12  1.640E+04 0.000E+00 0.000E+00 0.000E+00 0.000E+00    1       14        0        0
     13  9.053E+03 3.703E+05 0.000E+00 0.000E+00 0.000E+00    1        0       12        0
     14  2.476E+03 0.000E+00 0.000E+00 0.000E+00 0.000E+00    1       15        0        0
     15  5.144E+03 0.000E+00 0.000E+00 0.000E+00 0.000E+00    1       17        0        0
     16  6.863E+03 0.000E+00 0.000E+00 0.000E+00 0.000E+00    1        0       14        0
     17  7.022E+03 0.000E+00 0.000E+00 0.000E+00 0.000E+00    1       18        0        0
     18  3.144E+03 0.000E+00 0.000E+00 0.000E+00 0.000E+00    1       22        0        0
     19  3.580E+03 1.037E+06 0.000E+00 0.000E+00 0.000E+00    1       21       18        0
     20  2.413E+03 0.000E+00 0.000E+00 0.000E+00 0.000E+00    1        0       19        0
     21  2.816E+03 0.000E+00 0.000E+00 0.000E+00 0.000E+00    1       -1        0        0
     22  1.618E+04 0.000E+00 0.000E+00 0.000E+00 0.000E+00    1       23        0        0
     23  1.073E+04 0.000E+00 0.000E+00 0.000E+00 0.000E+00    1        0        0        0
     24  3.924E+03 0.000E+00 0.000E+00 0.000E+00 0.000E+00    1        0       22        0


         STREAMBED PROPERTIES AND STREAM DIMENSIONS

 SEGMENT     BED HYD. COND.      BED THICKNESS     ELEV.-TOP OF BED     WIDTH OF STREAM     DEPTH OF STREAM    STREAM ROUGHNESS
    No.     UPPER     LOWER     UPPER     LOWER     UPPER     LOWER     UPPER     LOWER     UPPER     LOWER   CHANNEL      BANK

     1  5.000E-01 5.000E-01 1.000E+00 1.000E+00 4.716E+03 4.634E+03 1.300E+01 1.300E+01                     3.000E-02
     2  5.000E-01 5.000E-01 1.000E+00 1.000E+00 4.629E+03 4.597E+03 1.300E+01 1.300E+01                     3.000E-02
     3  0.000E+00 0.000E+00 1.000E+00 1.000E+00 4.589E+03 4.564E+03 1.300E+01 1.300E+01                     3.000E-02
     4  1.000E+00 1.000E+00 1.000E+00 1.000E+00 4.591E+03 4.579E+03 9.000E+00 9.000E+00                     3.000E-02
     5  5.000E-01 5.000E-01 1.000E+00 1.000E+00 4.575E+03 4.566E+03 7.000E+00 7.000E+00                     3.000E-02
     6  0.000E+00 0.000E+00 1.000E+00 1.000E+00 4.581E+03 4.547E+03 1.600E+01 1.600E+01                     3.000E-02
     7  1.000E+00 1.000E+00 1.000E+00 1.000E+00 4.545E+03 4.526E+03 1.000E+01 1.000E+01                     3.000E-02
     8  1.000E+00 1.000E+00 1.000E+00 1.000E+00 4.523E+03 4.506E+03 8.000E+00 8.000E+00                     3.000E-02
     9  0.000E+00 0.000E+00 1.000E+00 1.000E+00 4.527E+03 4.510E+03 1.000E+01 1.000E+01                     3.000E-02
    10  1.500E-01 1.500E-01 1.000E+00 1.000E+00 4.634E+03 4.594E+03 1.200E+01 1.200E+01                     3.000E-02
    11  0.000E+00 0.000E+00 1.000E+00 1.000E+00 4.588E+03 4.578E+03 1.000E+01 1.000E+01                     3.000E-02
    12  5.000E-01 5.000E-01 1.000E+00 1.000E+00 4.590E+03 4.526E+03 1.000E+01 1.000E+01                     3.000E-02
    13  0.000E+00 0.000E+00 1.000E+00 1.000E+00 4.529E+03 4.500E+03 1.200E+01 1.200E+01                     3.000E-02
    14  1.000E+00 1.000E+00 1.000E+00 1.000E+00 4.521E+03 4.519E+03 1.000E+01 1.000E+01                     3.000E-02
    15  1.000E+00 1.000E+00 1.000E+00 1.000E+00 4.517E+03 4.505E+03 7.000E+00 7.000E+00                     3.000E-02
    16  0.000E+00 0.000E+00 1.000E+00 1.000E+00 4.516E+03 4.490E+03 1.000E+01 1.000E+01                     3.000E-02
    17  1.000E+00 1.000E+00 1.000E+00 1.000E+00 4.499E+03 4.484E+03 8.000E+00 8.000E+00                     3.000E-02
    18  1.000E+00 1.000E+00 1.000E+00 1.000E+00 4.481E+03 4.477E+03 8.000E+00 8.000E+00                     3.000E-02
    19  0.000E+00 0.000E+00 1.000E+00 1.000E+00 4.480E+03 4.478E+03 1.000E+01 1.000E+01                     3.000E-02
    20  0.000E+00 0.000E+00 1.000E+00 1.000E+00 4.479E+03 4.474E+03 4.000E+00 4.000E+00                     3.000E-02
    21  0.000E+00 0.000E+00 1.000E+00 1.000E+00 4.478E+03 4.475E+03 1.000E+01 1.000E+01                     3.000E-02
    22  5.000E-01 5.000E-01 1.000E+00 1.000E+00 4.476E+03 4.459E+03 1.600E+01 1.600E+01                     3.000E-02
    23  1.000E+00 1.000E+00 1.000E+00 1.000E+00 4.459E+03 4.450E+03 1.800E+01 1.800E+01                     3.000E-02
    24  0.000E+00 0.000E+00 1.000E+00 1.000E+00 4.461E+03 4.453E+03 1.000E+01 1.000E+01                     3.000E-02



 OUTER ITERATION NUMBER:     1
 BACKTRACK COUNT=  0 ACCEPTED RESIDUAL=  0.6207156E+11INCOMING RESIDUAL=  0.6207156E+11IBT=  0
0
     4 ITERATIONS FOR TIME STEP        1 IN STRESS PERIOD       1

 MAXIMUM HEAD CHANGE FOR EACH ITERATION:

    HEAD CHANGE   HEAD CHANGE   HEAD CHANGE   HEAD CHANGE   HEAD CHANGE
  LAYER,ROW,COL LAYER,ROW,COL LAYER,ROW,COL LAYER,ROW,COL LAYER,ROW,COL
 ----------------------------------------------------------------------
     -5.936       -0.7366       -0.8957E-01   -0.8645E-02
  (  1,  2, 46) (  1, 11, 14) (  1, 11, 14) (  1, 11, 14)

0OC -- OUTPUT CONTROL PACKAGE INPUT READ FROM UNIT 22

 HEAD/DRAWDOWN PRINTOUT FLAG = 1     TOTAL BUDGET PRINTOUT FLAG = 1
 CELL-BY-CELL FLOW TERM FLAG = 1

 OUTPUT FLAGS FOR ALL LAYERS ARE THE SAME:
   HEAD    DRAWDOWN  HEAD  DRAWDOWN
 PRINTOUT  PRINTOUT  SAVE    SAVE
 ----------------------------------
     0         0       1       1
 UBUDSV SAVING "         STORAGE" ON UNIT    50 AT TIME STEP     1, STRESS PERIOD     1
 UBUDSV SAVING "   CONSTANT HEAD" ON UNIT    50 AT TIME STEP     1, STRESS PERIOD     1
 UBUDSV SAVING "FLOW RIGHT FACE " ON UNIT    50 AT TIME STEP     1, STRESS PERIOD     1
 UBUDSV SAVING "FLOW FRONT FACE " ON UNIT    50 AT TIME STEP     1, STRESS PERIOD     1
 UBUDSV SAVING "        RECHARGE" ON UNIT    51 AT TIME STEP     1, STRESS PERIOD     1
 UBUDSV SAVING "              ET" ON UNIT    50 AT TIME STEP     1, STRESS PERIOD     1
 UBUDSV SAVING "  STREAM LEAKAGE" ON UNIT    50 AT TIME STEP     1, STRESS PERIOD     1

 HEAD WILL BE SAVED ON UNIT  30 AT END OF TIME STEP         1, STRESS PERIOD       1

 DRAWDOWN WILL BE SAVED ON UNIT  31 AT END OF TIME STEP         1, STRESS PERIOD       1
1
  VOLUMETRIC BUDGET FOR ENTIRE MODEL AT END OF TIME STEP       1 IN STRESS PERIOD       1
  -----------------------------------------------------------------------------

     CUMULATIVE VOLUMES      L**3       RATES FOR THIS TIME STEP      L**3/T
     ------------------                 ------------------------

           IN:                                      IN:
           ---                                      ---
             STORAGE =    13117275.0000               STORAGE =      437242.5000
       CONSTANT HEAD =           0.0000         CONSTANT HEAD =           0.0000
               WELLS =           0.0000                 WELLS =           0.0000
              DRAINS =           0.0000                DRAINS =           0.0000
            RECHARGE =    34500752.0000              RECHARGE =     1150025.0000
                  ET =           0.0000                    ET =           0.0000
       RIVER LEAKAGE =     3669221.7500         RIVER LEAKAGE =      122307.3906
     HEAD DEP BOUNDS =           0.0000       HEAD DEP BOUNDS =           0.0000
      STREAM LEAKAGE =    21304346.0000        STREAM LEAKAGE =      710144.8750

            TOTAL IN =    72591594.7500              TOTAL IN =     2419719.7656

          OUT:                                     OUT:
          ----                                     ----
             STORAGE =    18779238.0000               STORAGE =      625974.6250
       CONSTANT HEAD =           0.0000         CONSTANT HEAD =           0.0000
               WELLS =           0.0000                 WELLS =           0.0000
              DRAINS =           0.0000                DRAINS =           0.0000
            RECHARGE =     8313000.0000              RECHARGE =      277100.0000
                  ET =           0.0000                    ET =           0.0000
       RIVER LEAKAGE =    13419459.0000         RIVER LEAKAGE =      447315.3125
     HEAD DEP BOUNDS =     1507955.6250       HEAD DEP BOUNDS =       50265.1875
      STREAM LEAKAGE =    30584938.0000        STREAM LEAKAGE =     1019497.9375

           TOTAL OUT =    72604590.6250             TOTAL OUT =     2420153.0625

            IN - OUT =      -12995.8750              IN - OUT =        -433.2969

 PERCENT DISCREPANCY =          -0.02     PERCENT DISCREPANCY =          -0.02






          TIME SUMMARY AT END OF TIME STEP         1 IN STRESS PERIOD         1
                    SECONDS       MINUTES        HOURS         DAYS          YEARS
                    -------------------------------------------------------------------
   TIME STEP LENGTH  2592000.      43200.00      720.0000      30.00000     8.2135521E-02
 STRESS PERIOD TIME  2592000.      43200.00      720.0000      30.00000     8.2135521E-02
         TOTAL TIME  2592000.      43200.00      720.0000      30.00000     8.2135521E-02
1
 OUTER ITERATION NUMBER:     1
 BACKTRACK COUNT=  0 ACCEPTED RESIDUAL=  0.2613213E+10INCOMING RESIDUAL=  0.2613213E+10IBT=  0
     4 ITERATIONS FOR TIME STEP        2 IN STRESS PERIOD       1

 MAXIMUM HEAD CHANGE FOR EACH ITERATION:

    HEAD CHANGE   HEAD CHANGE   HEAD CHANGE   HEAD CHANGE   HEAD CHANGE
  LAYER,ROW,COL LAYER,ROW,COL LAYER,ROW,COL LAYER,ROW,COL LAYER,ROW,COL
 ----------------------------------------------------------------------
     -1.974       -0.2276       -0.2509E-01    0.3393E-02
  (  1,  2, 45) (  1, 11, 14) (  1, 11, 14) (  1, 11, 12)

0OC -- OUTPUT CONTROL PACKAGE INPUT READ FROM UNIT 22

 HEAD/DRAWDOWN PRINTOUT FLAG = 1     TOTAL BUDGET PRINTOUT FLAG = 1
 CELL-BY-CELL FLOW TERM FLAG = 1

 OUTPUT FLAGS FOR ALL LAYERS ARE THE SAME:
   HEAD    DRAWDOWN  HEAD  DRAWDOWN
 PRINTOUT  PRINTOUT  SAVE    SAVE
 ----------------------------------
     0         0       1       1
 UBUDSV SAVING "         STORAGE" ON UNIT    50 AT TIME STEP     2, STRESS PERIOD     1
 UBUDSV SAVING "   CONSTANT HEAD" ON UNIT    50 AT TIME STEP     2, STRESS PERIOD     1
 UBUDSV SAVING "FLOW RIGHT FACE " ON UNIT    50 AT TIME STEP     2, STRESS PERIOD     1
 UBUDSV SAVING "FLOW FRONT FACE " ON UNIT    50 AT TIME STEP     2, STRESS PERIOD     1
 UBUDSV SAVING "        RECHARGE" ON UNIT    51 AT TIME STEP     2, STRESS PERIOD     1
 UBUDSV SAVING "              ET" ON UNIT    50 AT TIME STEP     2, STRESS PERIOD     1
 UBUDSV SAVING "  STREAM LEAKAGE" ON UNIT    50 AT TIME STEP     2, STRESS PERIOD     1

 HEAD WILL BE SAVED ON UNIT  30 AT END OF TIME STEP         2, STRESS PERIOD       1

 DRAWDOWN WILL BE SAVED ON UNIT  31 AT END OF TIME STEP         2, STRESS PERIOD       1
1
  VOLUMETRIC BUDGET FOR ENTIRE MODEL AT END OF TIME STEP       2 IN STRESS PERIOD       1
  -----------------------------------------------------------------------------

     CUMULATIVE VOLUMES      L**3       RATES FOR THIS TIME STEP      L**3/T
     ------------------                 ------------------------

           IN:                                      IN:
           ---                                      ---
             STORAGE =    21823384.0000               STORAGE =      290203.6875
       CONSTANT HEAD =           0.0000         CONSTANT HEAD =           0.0000
               WELLS =           0.0000                 WELLS =           0.0000
              DRAINS =           0.0000                DRAINS =           0.0000
            RECHARGE =    69001504.0000              RECHARGE =     1150025.0000
                  ET =           0.0000                    ET =           0.0000
       RIVER LEAKAGE =     7195515.0000         RIVER LEAKAGE =      117543.1094
     HEAD DEP BOUNDS =           0.0000       HEAD DEP BOUNDS =           0.0000
      STREAM LEAKAGE =    42647760.0000        STREAM LEAKAGE =      711447.1250

            TOTAL IN =   140668163.0000              TOTAL IN =     2269218.9219

          OUT:                                     OUT:
          ----                                     ----
             STORAGE =    32339304.0000               STORAGE =      452002.2500
       CONSTANT HEAD =           0.0000         CONSTANT HEAD =           0.0000
               WELLS =           0.0000                 WELLS =           0.0000
              DRAINS =           0.0000                DRAINS =           0.0000
            RECHARGE =    16626000.0000              RECHARGE =      277100.0000
                  ET =           0.0000                    ET =           0.0000
       RIVER LEAKAGE =    27560786.0000         RIVER LEAKAGE =      471377.5625
     HEAD DEP BOUNDS =     3013724.7500       HEAD DEP BOUNDS =       50192.3047
      STREAM LEAKAGE =    61146420.0000        STREAM LEAKAGE =     1018716.1250

           TOTAL OUT =   140686234.7500             TOTAL OUT =     2269388.2422

            IN - OUT =      -18071.7500              IN - OUT =        -169.3203

 PERCENT DISCREPANCY =          -0.01     PERCENT DISCREPANCY =          -0.01






          TIME SUMMARY AT END OF TIME STEP         2 IN STRESS PERIOD         1
                    SECONDS       MINUTES        HOURS         DAYS          YEARS
                    -------------------------------------------------------------------
   TIME STEP LENGTH  2592000.      43200.00      720.0000      30.00000     8.2135521E-02
 STRESS PERIOD TIME  5184000.      86400.00      1440.000      60.00000     0.1642710    
         TOTAL TIME  5184000.      86400.00      1440.000      60.00000     0.1642710    
1
 OUTER ITERATION NUMBER:     1
 BACKTRACK COUNT=  0 ACCEPTED RESIDUAL=  0.8429852E+09INCOMING RESIDUAL=  0.8429852E+09IBT=  0
     3 ITERATIONS FOR TIME STEP        3 IN STRESS PERIOD       1

 MAXIMUM HEAD CHANGE FOR EACH ITERATION:

    HEAD CHANGE   HEAD CHANGE   HEAD CHANGE   HEAD CHANGE   HEAD CHANGE
  LAYER,ROW,COL LAYER,ROW,COL LAYER,ROW,COL LAYER,ROW,COL LAYER,ROW,COL
 ----------------------------------------------------------------------
     0.8916       -0.7185E-01   -0.7762E-02
  (  1, 39, 15) (  1, 11, 14) (  1, 11, 14)

0OC -- OUTPUT CONTROL PACKAGE INPUT READ FROM UNIT 22

 HEAD/DRAWDOWN PRINTOUT FLAG = 1     TOTAL BUDGET PRINTOUT FLAG = 1
 CELL-BY-CELL FLOW TERM FLAG = 1

 OUTPUT FLAGS FOR ALL LAYERS ARE THE SAME:
   HEAD    DRAWDOWN  HEAD  DRAWDOWN
 PRINTOUT  PRINTOUT  SAVE    SAVE
 ----------------------------------
     0         0       1       1
 UBUDSV SAVING "         STORAGE" ON UNIT    50 AT TIME STEP     3, STRESS PERIOD     1
 UBUDSV SAVING "   CONSTANT HEAD" ON UNIT    50 AT TIME STEP     3, STRESS PERIOD     1
 UBUDSV SAVING "FLOW RIGHT FACE " ON UNIT    50 AT TIME STEP     3, STRESS PERIOD     1
 UBUDSV SAVING "FLOW FRONT FACE " ON UNIT    50 AT TIME STEP     3, STRESS PERIOD     1
 UBUDSV SAVING "        RECHARGE" ON UNIT    51 AT TIME STEP     3, STRESS PERIOD     1
 UBUDSV SAVING "              ET" ON UNIT    50 AT TIME STEP     3, STRESS PERIOD     1
 UBUDSV SAVING "  STREAM LEAKAGE" ON UNIT    50 AT TIME STEP     3, STRESS PERIOD     1

 HEAD WILL BE SAVED ON UNIT  30 AT END OF TIME STEP         3, STRESS PERIOD       1

 DRAWDOWN WILL BE SAVED ON UNIT  31 AT END OF TIME STEP         3, STRESS PERIOD       1
1
  VOLUMETRIC BUDGET FOR ENTIRE MODEL AT END OF TIME STEP       3 IN STRESS PERIOD       1
  -----------------------------------------------------------------------------

     CUMULATIVE VOLUMES      L**3       RATES FOR THIS TIME STEP      L**3/T
     ------------------                 ------------------------

           IN:                                      IN:
           ---                                      ---
             STORAGE =    28366496.0000               STORAGE =      218103.7500
       CONSTANT HEAD =           0.0000         CONSTANT HEAD =           0.0000
               WELLS =           0.0000                 WELLS =           0.0000
              DRAINS =           0.0000                DRAINS =           0.0000
            RECHARGE =   103502256.0000              RECHARGE =     1150025.0000
                  ET =           0.0000                    ET =           0.0000
       RIVER LEAKAGE =    10800052.0000         RIVER LEAKAGE =      120151.2422
     HEAD DEP BOUNDS =           0.0000       HEAD DEP BOUNDS =           0.0000
      STREAM LEAKAGE =    64007540.0000        STREAM LEAKAGE =      711992.6875

            TOTAL IN =   206676344.0000              TOTAL IN =     2200272.6797

          OUT:                                     OUT:
          ----                                     ----
             STORAGE =    43631652.0000               STORAGE =      376411.6250
       CONSTANT HEAD =           0.0000         CONSTANT HEAD =           0.0000
               WELLS =           0.0000                 WELLS =           0.0000
              DRAINS =           0.0000                DRAINS =           0.0000
            RECHARGE =    24939000.0000              RECHARGE =      277100.0000
                  ET =           0.0000                    ET =           0.0000
       RIVER LEAKAGE =    41976476.0000         RIVER LEAKAGE =      480523.0312
     HEAD DEP BOUNDS =     4517523.5000       HEAD DEP BOUNDS =       50126.6289
      STREAM LEAKAGE =    91629280.0000        STREAM LEAKAGE =     1016095.2500

           TOTAL OUT =   206693931.5000             TOTAL OUT =     2200256.5352

            IN - OUT =      -17587.5000              IN - OUT =          16.1445

 PERCENT DISCREPANCY =          -0.01     PERCENT DISCREPANCY =           0.00






          TIME SUMMARY AT END OF TIME STEP         3 IN STRESS PERIOD         1
                    SECONDS       MINUTES        HOURS         DAYS          YEARS
                    -------------------------------------------------------------------
   TIME STEP LENGTH  2592000.      43200.00      720.0000      30.00000     8.2135521E-02
 STRESS PERIOD TIME  7776000.      129600.0      2160.000      90.00000     0.2464066    
         TOTAL TIME  7776000.      129600.0      2160.000      90.00000     0.2464066    
1
 OUTER ITERATION NUMBER:     1
 BACKTRACK COUNT=  0 ACCEPTED RESIDUAL=  0.4548828E+09INCOMING RESIDUAL=  0.4548828E+09IBT=  0
     3 ITERATIONS FOR TIME STEP        4 IN STRESS PERIOD       1

 MAXIMUM HEAD CHANGE FOR EACH ITERATION:

    HEAD CHANGE   HEAD CHANGE   HEAD CHANGE   HEAD CHANGE   HEAD CHANGE
  LAYER,ROW,COL LAYER,ROW,COL LAYER,ROW,COL LAYER,ROW,COL LAYER,ROW,COL
 ----------------------------------------------------------------------
     0.5396        0.5877E-01   -0.2816E-02
  (  1, 38, 15) (  1, 38, 14) (  1, 11, 14)

0OC -- OUTPUT CONTROL PACKAGE INPUT READ FROM UNIT 22

 HEAD/DRAWDOWN PRINTOUT FLAG = 1     TOTAL BUDGET PRINTOUT FLAG = 1
 CELL-BY-CELL FLOW TERM FLAG = 1

 OUTPUT FLAGS FOR ALL LAYERS ARE THE SAME:
   HEAD    DRAWDOWN  HEAD  DRAWDOWN
 PRINTOUT  PRINTOUT  SAVE    SAVE
 ----------------------------------
     0         0       1       1
 UBUDSV SAVING "         STORAGE" ON UNIT    50 AT TIME STEP     4, STRESS PERIOD     1
 UBUDSV SAVING "   CONSTANT HEAD" ON UNIT    50 AT TIME STEP     4, STRESS PERIOD     1
 UBUDSV SAVING "FLOW RIGHT FACE " ON UNIT    50 AT TIME STEP     4, STRESS PERIOD     1
 UBUDSV SAVING "FLOW FRONT FACE " ON UNIT    50 AT TIME STEP     4, STRESS PERIOD     1
 UBUDSV SAVING "        RECHARGE" ON UNIT    51 AT TIME STEP     4, STRESS PERIOD     1
 UBUDSV SAVING "              ET" ON UNIT    50 AT TIME STEP     4, STRESS PERIOD     1
 UBUDSV SAVING "  STREAM LEAKAGE" ON UNIT    50 AT TIME STEP     4, STRESS PERIOD     1

 HEAD WILL BE SAVED ON UNIT  30 AT END OF TIME STEP         4, STRESS PERIOD       1

 DRAWDOWN WILL BE SAVED ON UNIT  31 AT END OF TIME STEP         4, STRESS PERIOD       1
1
  VOLUMETRIC BUDGET FOR ENTIRE MODEL AT END OF TIME STEP       4 IN STRESS PERIOD       1
  -----------------------------------------------------------------------------

     CUMULATIVE VOLUMES      L**3       RATES FOR THIS TIME STEP      L**3/T
     ------------------                 ------------------------

           IN:                                      IN:
           ---                                      ---
             STORAGE =    33644836.0000               STORAGE =      175944.6406
       CONSTANT HEAD =           0.0000         CONSTANT HEAD =           0.0000
               WELLS =           0.0000                 WELLS =           0.0000
              DRAINS =           0.0000                DRAINS =           0.0000
            RECHARGE =   138003008.0000              RECHARGE =     1150025.0000
                  ET =           0.0000                    ET =           0.0000
       RIVER LEAKAGE =    14447129.0000         RIVER LEAKAGE =      121569.2344
     HEAD DEP BOUNDS =           0.0000       HEAD DEP BOUNDS =           0.0000
      STREAM LEAKAGE =    85391008.0000        STREAM LEAKAGE =      712782.2500

            TOTAL IN =   271485981.0000              TOTAL IN =     2160321.1250

          OUT:                                     OUT:
          ----                                     ----
             STORAGE =    53574156.0000               STORAGE =      331416.7812
       CONSTANT HEAD =           0.0000         CONSTANT HEAD =           0.0000
               WELLS =           0.0000                 WELLS =           0.0000
              DRAINS =           0.0000                DRAINS =           0.0000
            RECHARGE =    33252000.0000              RECHARGE =      277100.0000
                  ET =           0.0000                    ET =           0.0000
       RIVER LEAKAGE =    56568720.0000         RIVER LEAKAGE =      486408.1562
     HEAD DEP BOUNDS =     6019524.5000       HEAD DEP BOUNDS =       50066.7031
      STREAM LEAKAGE =   122087832.0000        STREAM LEAKAGE =     1015285.0000

           TOTAL OUT =   271502232.5000             TOTAL OUT =     2160276.6406

            IN - OUT =      -16251.5000              IN - OUT =          44.4844

 PERCENT DISCREPANCY =          -0.01     PERCENT DISCREPANCY =           0.00






          TIME SUMMARY AT END OF TIME STEP         4 IN STRESS PERIOD         1
                    SECONDS       MINUTES        HOURS         DAYS          YEARS
                    -------------------------------------------------------------------
   TIME STEP LENGTH  2592000.      43200.00      720.0000      30.00000     8.2135521E-02
 STRESS PERIOD TIME 1.0368000E+07  172800.0      2880.000      120.0000     0.3285421    
         TOTAL TIME 1.0368000E+07  172800.0      2880.000      120.0000     0.3285421    
1
 OUTER ITERATION NUMBER:     1
 BACKTRACK COUNT=  0 ACCEPTED RESIDUAL=  0.3063020E+09INCOMING RESIDUAL=  0.3063020E+09IBT=  0
     4 ITERATIONS FOR TIME STEP        5 IN STRESS PERIOD       1

 MAXIMUM HEAD CHANGE FOR EACH ITERATION:

    HEAD CHANGE   HEAD CHANGE   HEAD CHANGE   HEAD CHANGE   HEAD CHANGE
  LAYER,ROW,COL LAYER,ROW,COL LAYER,ROW,COL LAYER,ROW,COL LAYER,ROW,COL
 ----------------------------------------------------------------------
     0.3649        0.2604E-01    0.1510E-01    0.9105E-03
  (  1, 38, 15) (  1, 41, 13) (  1, 38, 14) (  1, 38, 14)

0OC -- OUTPUT CONTROL PACKAGE INPUT READ FROM UNIT 22

 HEAD/DRAWDOWN PRINTOUT FLAG = 1     TOTAL BUDGET PRINTOUT FLAG = 1
 CELL-BY-CELL FLOW TERM FLAG = 1

 OUTPUT FLAGS FOR ALL LAYERS ARE THE SAME:
   HEAD    DRAWDOWN  HEAD  DRAWDOWN
 PRINTOUT  PRINTOUT  SAVE    SAVE
 ----------------------------------
     0         0       1       1
 UBUDSV SAVING "         STORAGE" ON UNIT    50 AT TIME STEP     5, STRESS PERIOD     1
 UBUDSV SAVING "   CONSTANT HEAD" ON UNIT    50 AT TIME STEP     5, STRESS PERIOD     1
 UBUDSV SAVING "FLOW RIGHT FACE " ON UNIT    50 AT TIME STEP     5, STRESS PERIOD     1
 UBUDSV SAVING "FLOW FRONT FACE " ON UNIT    50 AT TIME STEP     5, STRESS PERIOD     1
 UBUDSV SAVING "        RECHARGE" ON UNIT    51 AT TIME STEP     5, STRESS PERIOD     1
 UBUDSV SAVING "              ET" ON UNIT    50 AT TIME STEP     5, STRESS PERIOD     1
 UBUDSV SAVING "  STREAM LEAKAGE" ON UNIT    50 AT TIME STEP     5, STRESS PERIOD     1

 HEAD WILL BE SAVED ON UNIT  30 AT END OF TIME STEP         5, STRESS PERIOD       1

 DRAWDOWN WILL BE SAVED ON UNIT  31 AT END OF TIME STEP         5, STRESS PERIOD       1
1
  VOLUMETRIC BUDGET FOR ENTIRE MODEL AT END OF TIME STEP       5 IN STRESS PERIOD       1
  -----------------------------------------------------------------------------

     CUMULATIVE VOLUMES      L**3       RATES FOR THIS TIME STEP      L**3/T
     ------------------                 ------------------------

           IN:                                      IN:
           ---                                      ---
             STORAGE =    38172480.0000               STORAGE =      150921.4844
       CONSTANT HEAD =           0.0000         CONSTANT HEAD =           0.0000
               WELLS =           0.0000                 WELLS =           0.0000
              DRAINS =           0.0000                DRAINS =           0.0000
            RECHARGE =   172503760.0000              RECHARGE =     1150025.0000
                  ET =           0.0000                    ET =           0.0000
       RIVER LEAKAGE =    18116172.0000         RIVER LEAKAGE =      122301.4375
     HEAD DEP BOUNDS =           0.0000       HEAD DEP BOUNDS =           0.0000
      STREAM LEAKAGE =   106789976.0000        STREAM LEAKAGE =      713299.0625

            TOTAL IN =   335582388.0000              TOTAL IN =     2136546.9844

          OUT:                                     OUT:
          ----                                     ----
             STORAGE =    62660320.0000               STORAGE =      302872.1250
       CONSTANT HEAD =           0.0000         CONSTANT HEAD =           0.0000
               WELLS =           0.0000                 WELLS =           0.0000
              DRAINS =           0.0000                DRAINS =           0.0000
            RECHARGE =    41565000.0000              RECHARGE =      277100.0000
                  ET =           0.0000                    ET =           0.0000
       RIVER LEAKAGE =    71325144.0000         RIVER LEAKAGE =      491880.6875
     HEAD DEP BOUNDS =     7519900.5000       HEAD DEP BOUNDS =       50012.5352
      STREAM LEAKAGE =   152525776.0000        STREAM LEAKAGE =     1014598.1250

           TOTAL OUT =   335596140.5000             TOTAL OUT =     2136463.4727

            IN - OUT =      -13752.5000              IN - OUT =          83.5117

 PERCENT DISCREPANCY =           0.00     PERCENT DISCREPANCY =           0.00






          TIME SUMMARY AT END OF TIME STEP         5 IN STRESS PERIOD         1
                    SECONDS       MINUTES        HOURS         DAYS          YEARS
                    -------------------------------------------------------------------
   TIME STEP LENGTH  2592000.      43200.00      720.0000      30.00000     8.2135521E-02
 STRESS PERIOD TIME 1.2960000E+07  216000.0      3600.000      150.0000     0.4106776    
         TOTAL TIME 1.2960000E+07  216000.0      3600.000      150.0000     0.4106776    
1
 OUTER ITERATION NUMBER:     1
 BACKTRACK COUNT=  0 ACCEPTED RESIDUAL=  0.2343324E+09INCOMING RESIDUAL=  0.2343324E+09IBT=  0
     3 ITERATIONS FOR TIME STEP        6 IN STRESS PERIOD       1

 MAXIMUM HEAD CHANGE FOR EACH ITERATION:

    HEAD CHANGE   HEAD CHANGE   HEAD CHANGE   HEAD CHANGE   HEAD CHANGE
  LAYER,ROW,COL LAYER,ROW,COL LAYER,ROW,COL LAYER,ROW,COL LAYER,ROW,COL
 ----------------------------------------------------------------------
     0.3019        0.4073E-01    0.2047E-02
  (  1, 27, 33) (  1, 38, 14) (  1, 38, 14)

0OC -- OUTPUT CONTROL PACKAGE INPUT READ FROM UNIT 22

 HEAD/DRAWDOWN PRINTOUT FLAG = 1     TOTAL BUDGET PRINTOUT FLAG = 1
 CELL-BY-CELL FLOW TERM FLAG = 1

 OUTPUT FLAGS FOR ALL LAYERS ARE THE SAME:
   HEAD    DRAWDOWN  HEAD  DRAWDOWN
 PRINTOUT  PRINTOUT  SAVE    SAVE
 ----------------------------------
     0         0       1       1
 UBUDSV SAVING "         STORAGE" ON UNIT    50 AT TIME STEP     6, STRESS PERIOD     1
 UBUDSV SAVING "   CONSTANT HEAD" ON UNIT    50 AT TIME STEP     6, STRESS PERIOD     1
 UBUDSV SAVING "FLOW RIGHT FACE " ON UNIT    50 AT TIME STEP     6, STRESS PERIOD     1
 UBUDSV SAVING "FLOW FRONT FACE " ON UNIT    50 AT TIME STEP     6, STRESS PERIOD     1
 UBUDSV SAVING "        RECHARGE" ON UNIT    51 AT TIME STEP     6, STRESS PERIOD     1
 UBUDSV SAVING "              ET" ON UNIT    50 AT TIME STEP     6, STRESS PERIOD     1
 UBUDSV SAVING "  STREAM LEAKAGE" ON UNIT    50 AT TIME STEP     6, STRESS PERIOD     1

 HEAD WILL BE SAVED ON UNIT  30 AT END OF TIME STEP         6, STRESS PERIOD       1

 DRAWDOWN WILL BE SAVED ON UNIT  31 AT END OF TIME STEP         6, STRESS PERIOD       1
1
  VOLUMETRIC BUDGET FOR ENTIRE MODEL AT END OF TIME STEP       6 IN STRESS PERIOD       1
  -----------------------------------------------------------------------------

     CUMULATIVE VOLUMES      L**3       RATES FOR THIS TIME STEP      L**3/T
     ------------------                 ------------------------

           IN:                                      IN:
           ---                                      ---
             STORAGE =    42200212.0000               STORAGE =      134257.6875
       CONSTANT HEAD =           0.0000         CONSTANT HEAD =           0.0000
               WELLS =           0.0000                 WELLS =           0.0000
              DRAINS =           0.0000                DRAINS =           0.0000
            RECHARGE =   207004512.0000              RECHARGE =     1150025.0000
                  ET =           0.0000                    ET =           0.0000
       RIVER LEAKAGE =    21795132.0000         RIVER LEAKAGE =      122632.0234
     HEAD DEP BOUNDS =           0.0000       HEAD DEP BOUNDS =           0.0000
      STREAM LEAKAGE =   128200848.0000        STREAM LEAKAGE =      713695.8125

            TOTAL IN =   399200704.0000              TOTAL IN =     2120610.5234

          OUT:                                     OUT:
          ----                                     ----
             STORAGE =    71104552.0000               STORAGE =      281474.3438
       CONSTANT HEAD =           0.0000         CONSTANT HEAD =           0.0000
               WELLS =           0.0000                 WELLS =           0.0000
              DRAINS =           0.0000                DRAINS =           0.0000
            RECHARGE =    49878000.0000              RECHARGE =      277100.0000
                  ET =           0.0000                    ET =           0.0000
       RIVER LEAKAGE =    86251816.0000         RIVER LEAKAGE =      497555.8438
     HEAD DEP BOUNDS =     9018740.0000       HEAD DEP BOUNDS =       49961.3320
      STREAM LEAKAGE =   182967280.0000        STREAM LEAKAGE =     1014716.7500

           TOTAL OUT =   399220388.0000             TOTAL OUT =     2120808.2695

            IN - OUT =      -19684.0000              IN - OUT =        -197.7461

 PERCENT DISCREPANCY =           0.00     PERCENT DISCREPANCY =          -0.01






          TIME SUMMARY AT END OF TIME STEP         6 IN STRESS PERIOD         1
                    SECONDS       MINUTES        HOURS         DAYS          YEARS
                    -------------------------------------------------------------------
   TIME STEP LENGTH  2592000.      43200.00      720.0000      30.00000     8.2135521E-02
 STRESS PERIOD TIME 1.5552000E+07  259200.0      4320.000      180.0000     0.4928131    
         TOTAL TIME 1.5552000E+07  259200.0      4320.000      180.0000     0.4928131    
1
 OUTER ITERATION NUMBER:     1
 BACKTRACK COUNT=  0 ACCEPTED RESIDUAL=  0.1924634E+09INCOMING RESIDUAL=  0.1924634E+09IBT=  0
     3 ITERATIONS FOR TIME STEP        7 IN STRESS PERIOD       1

 MAXIMUM HEAD CHANGE FOR EACH ITERATION:

    HEAD CHANGE   HEAD CHANGE   HEAD CHANGE   HEAD CHANGE   HEAD CHANGE
  LAYER,ROW,COL LAYER,ROW,COL LAYER,ROW,COL LAYER,ROW,COL LAYER,ROW,COL
 ----------------------------------------------------------------------
     0.2748        0.1966E-01    0.9040E-03
  (  1, 27, 33) (  1, 38, 14) (  1, 38, 14)

0OC -- OUTPUT CONTROL PACKAGE INPUT READ FROM UNIT 22

 HEAD/DRAWDOWN PRINTOUT FLAG = 1     TOTAL BUDGET PRINTOUT FLAG = 1
 CELL-BY-CELL FLOW TERM FLAG = 1

 OUTPUT FLAGS FOR ALL LAYERS ARE THE SAME:
   HEAD    DRAWDOWN  HEAD  DRAWDOWN
 PRINTOUT  PRINTOUT  SAVE    SAVE
 ----------------------------------
     0         0       1       1
 UBUDSV SAVING "         STORAGE" ON UNIT    50 AT TIME STEP     7, STRESS PERIOD     1
 UBUDSV SAVING "   CONSTANT HEAD" ON UNIT    50 AT TIME STEP     7, STRESS PERIOD     1
 UBUDSV SAVING "FLOW RIGHT FACE " ON UNIT    50 AT TIME STEP     7, STRESS PERIOD     1
 UBUDSV SAVING "FLOW FRONT FACE " ON UNIT    50 AT TIME STEP     7, STRESS PERIOD     1
 UBUDSV SAVING "        RECHARGE" ON UNIT    51 AT TIME STEP     7, STRESS PERIOD     1
 UBUDSV SAVING "              ET" ON UNIT    50 AT TIME STEP     7, STRESS PERIOD     1
 UBUDSV SAVING "  STREAM LEAKAGE" ON UNIT    50 AT TIME STEP     7, STRESS PERIOD     1

 HEAD WILL BE SAVED ON UNIT  30 AT END OF TIME STEP         7, STRESS PERIOD       1

 DRAWDOWN WILL BE SAVED ON UNIT  31 AT END OF TIME STEP         7, STRESS PERIOD       1
1
  VOLUMETRIC BUDGET FOR ENTIRE MODEL AT END OF TIME STEP       7 IN STRESS PERIOD       1
  -----------------------------------------------------------------------------

     CUMULATIVE VOLUMES      L**3       RATES FOR THIS TIME STEP      L**3/T
     ------------------                 ------------------------

           IN:                                      IN:
           ---                                      ---
             STORAGE =    45876020.0000               STORAGE =      122526.8828
       CONSTANT HEAD =           0.0000         CONSTANT HEAD =           0.0000
               WELLS =           0.0000                 WELLS =           0.0000
              DRAINS =           0.0000                DRAINS =           0.0000
            RECHARGE =   241505264.0000              RECHARGE =     1150025.0000
                  ET =           0.0000                    ET =           0.0000
       RIVER LEAKAGE =    25477020.0000         RIVER LEAKAGE =      122729.5859
     HEAD DEP BOUNDS =           0.0000       HEAD DEP BOUNDS =           0.0000
      STREAM LEAKAGE =   149606976.0000        STREAM LEAKAGE =      713537.3750

            TOTAL IN =   462465280.0000              TOTAL IN =     2108818.8438

          OUT:                                     OUT:
          ----                                     ----
             STORAGE =    79027896.0000               STORAGE =      264111.5938
       CONSTANT HEAD =           0.0000         CONSTANT HEAD =           0.0000
               WELLS =           0.0000                 WELLS =           0.0000
              DRAINS =           0.0000                DRAINS =           0.0000
            RECHARGE =    58191000.0000              RECHARGE =      277100.0000
                  ET =           0.0000                    ET =           0.0000
       RIVER LEAKAGE =   101339640.0000         RIVER LEAKAGE =      502927.3750
     HEAD DEP BOUNDS =    10516138.0000       HEAD DEP BOUNDS =       49913.2812
      STREAM LEAKAGE =   213411888.0000        STREAM LEAKAGE =     1014820.0625

           TOTAL OUT =   462486562.0000             TOTAL OUT =     2108872.3125

            IN - OUT =      -21282.0000              IN - OUT =         -53.4688

 PERCENT DISCREPANCY =           0.00     PERCENT DISCREPANCY =           0.00






          TIME SUMMARY AT END OF TIME STEP         7 IN STRESS PERIOD         1
                    SECONDS       MINUTES        HOURS         DAYS          YEARS
                    -------------------------------------------------------------------
   TIME STEP LENGTH  2592000.      43200.00      720.0000      30.00000     8.2135521E-02
 STRESS PERIOD TIME 1.8144000E+07  302400.0      5040.000      210.0000     0.5749487    
         TOTAL TIME 1.8144000E+07  302400.0      5040.000      210.0000     0.5749487    
1

 BAS5 -- BASIC MODEL PACKAGE, VERSION 5, 1/1/95 INPUT READ FROM UNIT  1
1                                                   STRESS PERIOD NO.       2, LENGTH =   150.0000    
                                                    ----------------------------------------------

                                                    NUMBER OF TIME STEPS =       5

                                                     MULTIPLIER FOR DELT =     1.000

                                                  INITIAL TIME STEP SIZE =   30.00000    

 WEL1 -- WELL PACKAGE, VERSION 5, 9/1/93 INPUT READ FROM 12

                  0 WELLS

 DRN1 -- DRAIN PACKAGE, VERSION 1, 9/1/87 INPUT READ FROM UNIT 13



     0 DRAINS

 RSF4 -- RECHARGE SEEPAGE FACE PACKAGE, 12/23/95  INPUT READ FROM UNIT 18



                           RECHARGE
 READING ON UNIT  18 WITH FORMAT: (10e12.4)           



     0 SEEPAGE-FACE BOUNDARY NODES

 EVT1 -- EVAPOTRANSPIRATION PACKAGE, VERSION 1, 9/1/87 INPUT READ FROM UNIT 20

 REUSING SURF FROM LAST STRESS PERIOD



            EVAPOTRANSPIRATION RATE
 READING ON UNIT  20 WITH FORMAT: (10e12.4)           



                   EXTINCTION DEPTH
 READING ON UNIT  20 WITH FORMAT: (10e12.4)           

 RIV1 -- RIVER PACKAGE, VERSION 1, 9/1/87 INPUT READ FROM UNIT 78



    66 RIVER REACHES

 LAYER   ROW   COL     STAGE   CONDUCTANCE   BOT. ELEV.  REACH NO.
 -----------------------------------------------------------------
        1     17     7    4480.      0.5000E+06   4440.           1
        1     17     8    4480.      0.5000E+06   4440.           2
        1     18     6    4480.      0.5000E+06   4440.           3
        1     18     7    4480.      0.5000E+06   4440.           4
        1     18     8    4480.      0.5000E+06   4440.           5
        1     18     9    4480.      0.5000E+06   4440.           6
        1     18    10    4480.      0.5000E+06   4440.           7
        1     19     6    4480.      0.5000E+06   4440.           8
        1     19     7    4480.      0.5000E+06   4440.           9
        1     19     8    4480.      0.5000E+06   4440.          10
        1     19     9    4480.      0.5000E+06   4440.          11
        1     19    10    4480.      0.5000E+06   4440.          12
        1     19    11    4480.      0.5000E+06   4440.          13
        1     19    12    4480.      0.5000E+06   4440.          14
        1     20     6    4480.      0.5000E+06   4440.          15
        1     20     7    4480.      0.5000E+06   4440.          16
        1     20     8    4480.      0.5000E+06   4440.          17
        1     20     9    4480.      0.5000E+06   4440.          18
        1     20    10    4480.      0.5000E+06   4440.          19
        1     20    11    4480.      0.5000E+06   4440.          20
        1     20    12    4480.      0.5000E+06   4440.          21
        1     21     6    4480.      0.5000E+06   4440.          22
        1     21     7    4480.      0.5000E+06   4440.          23
        1     21     8    4480.      0.5000E+06   4440.          24
        1     21     9    4480.      0.5000E+06   4440.          25
        1     21    10    4480.      0.5000E+06   4440.          26
        1     21    11    4480.      0.5000E+06   4440.          27
        1     21    12    4480.      0.5000E+06   4440.          28
        1     21    13    4480.      0.5000E+06   4440.          29
        1     22     6    4480.      0.5000E+06   4440.          30
        1     22     7    4480.      0.5000E+06   4440.          31
        1     22     8    4480.      0.5000E+06   4440.          32
        1     22     9    4480.      0.5000E+06   4440.          33
        1     22    10    4480.      0.5000E+06   4440.          34
        1     22    11    4480.      0.5000E+06   4440.          35
        1     22    12    4480.      0.5000E+06   4440.          36
        1     22    13    4480.      0.5000E+06   4440.          37
        1     22    14    4480.      0.5000E+06   4440.          38
        1     23     6    4480.      0.5000E+06   4440.          39
        1     23     7    4480.      0.5000E+06   4440.          40
        1     23     8    4480.      0.5000E+06   4440.          41
        1     23     9    4480.      0.5000E+06   4440.          42
        1     23    10    4480.      0.5000E+06   4440.          43
        1     23    11    4480.      0.5000E+06   4440.          44
        1     23    12    4480.      0.5000E+06   4440.          45
        1     23    13    4480.      0.5000E+06   4440.          46
        1     23    14    4480.      0.5000E+06   4440.          47
        1     23    15    4480.      0.5000E+06   4440.          48
        1     24     7    4480.      0.5000E+06   4440.          49
        1     24     8    4480.      0.5000E+06   4440.          50
        1     24     9    4480.      0.5000E+06   4440.          51
        1     24    10    4480.      0.5000E+06   4440.          52
        1     24    11    4480.      0.5000E+06   4440.          53
        1     24    12    4480.      0.5000E+06   4440.          54
        1     24    13    4480.      0.5000E+06   4440.          55
        1     24    14    4480.      0.5000E+06   4440.          56
        1     24    15    4480.      0.5000E+06   4440.          57
        1     25     8    4480.      0.5000E+06   4440.          58
        1     25     9    4480.      0.5000E+06   4440.          59
        1     25    10    4480.      0.5000E+06   4440.          60
        1     25    11    4480.      0.5000E+06   4440.          61
        1     25    12    4480.      0.5000E+06   4440.          62
        1     25    13    4480.      0.5000E+06   4440.          63
        1     25    14    4480.      0.5000E+06   4440.          64
        1     26    10    4480.      0.5000E+06   4440.          65
        1     26    11    4480.      0.5000E+06   4440.          66

 GHB1 -- GHB PACKAGE, VERSION 1, 9/1/87 INPUT READ FROM UNIT 37



    14 HEAD-DEPENDENT BOUNDARY NODES

 LAYER   ROW   COL   ELEVATION   CONDUCTANCE   BOUND NO.
 -------------------------------------------------------
     1     20     1    4430.         500.0           1
     1     20     2    4430.         500.0           2
     1     20     3    4430.         500.0           3
     1     21     1    4430.         500.0           4
     1     21     2    4430.         500.0           5
     1     21     3    4430.         500.0           6
     1     22     1    4430.         500.0           7
     1     23     1    4430.         500.0           8
     1     24     1    4430.         500.0           9
     1     25     1    4430.         500.0          10
     1     26     1    4430.         500.0          11
     1     27     1    4430.         500.0          12
     1     28     1    4430.         500.0          13
     1     29     1    4430.         500.0          14



 CLASSIFICATION & COUNT OF STREAM SEGMENTS BASED ON SOURCE OF INFLOW:

                HEADWATER     DIVERSION     RECEIVES TRIBUTARY FLOW
                ---------     ---------     -----------------------
                     4              7              13



                    INPUT DATA FOR EACH STREAM SEGMENT
 ---------------------------------------------------------------------------------------------

 SEGMENT    SEG.     INFLOW   OVERLAND   STREAM    STREAM   ICALC  OUTFLOW  DIVERSION PRIORITY
    NO.    LENGTH     RATE     RUNOFF      ET       PPT.    METH.  TO SEG.  FROM SEG.    NO.

      1  2.219E+04 2.498E+06 0.000E+00 0.000E+00 0.000E+00    1        2        0        0
      2  9.402E+03 0.000E+00 0.000E+00 0.000E+00 0.000E+00    1        4        0        0
      3  1.034E+04 1.721E+06 0.000E+00 0.000E+00 0.000E+00    1        0        1        0
      4  7.065E+03 0.000E+00 0.000E+00 0.000E+00 0.000E+00    1        5        0        0
      5  4.524E+03 0.000E+00 0.000E+00 0.000E+00 0.000E+00    1        7        0        0
      6  2.167E+04 0.000E+00 0.000E+00 0.000E+00 0.000E+00    1        0        4        0
      7  1.083E+04 0.000E+00 0.000E+00 0.000E+00 0.000E+00    1        8        0        0
      8  5.534E+03 0.000E+00 0.000E+00 0.000E+00 0.000E+00    1       17        0        0
      9  8.029E+03 6.427E+05 0.000E+00 0.000E+00 0.000E+00    1        0        7        0
     10  1.067E+04 2.808E+05 0.000E+00 0.000E+00 0.000E+00    1       12        0        0
     11  4.927E+03 1.296E+05 0.000E+00 0.000E+00 0.000E+00    1       12        0        0
     12  1.640E+04 0.000E+00 0.000E+00 0.000E+00 0.000E+00    1       14        0        0
     13  9.053E+03 0.000E+00 0.000E+00 0.000E+00 0.000E+00    1        0       12        0
     14  2.476E+03 0.000E+00 0.000E+00 0.000E+00 0.000E+00    1       15        0        0
     15  5.144E+03 0.000E+00 0.000E+00 0.000E+00 0.000E+00    1       17        0        0
     16  6.863E+03 9.415E+05 0.000E+00 0.000E+00 0.000E+00    1        0       14        0
     17  7.022E+03 0.000E+00 0.000E+00 0.000E+00 0.000E+00    1       18        0        0
     18  3.144E+03 0.000E+00 0.000E+00 0.000E+00 0.000E+00    1       22        0        0
     19  3.580E+03 1.037E+05 0.000E+00 0.000E+00 0.000E+00    1       20       18        0
     20  2.413E+03 0.000E+00 0.000E+00 0.000E+00 0.000E+00    1        0        0        0
     21  2.816E+03 0.000E+00 0.000E+00 0.000E+00 0.000E+00    1       -1        0        0
     22  1.618E+04 0.000E+00 0.000E+00 0.000E+00 0.000E+00    1       23        0        0
     23  1.073E+04 0.000E+00 0.000E+00 0.000E+00 0.000E+00    1        0        0        0
     24  3.924E+03 1.867E+05 0.000E+00 0.000E+00 0.000E+00    1        0       22        0


         STREAMBED PROPERTIES AND STREAM DIMENSIONS

 SEGMENT     BED HYD. COND.      BED THICKNESS     ELEV.-TOP OF BED     WIDTH OF STREAM     DEPTH OF STREAM    STREAM ROUGHNESS
    No.     UPPER     LOWER     UPPER     LOWER     UPPER     LOWER     UPPER     LOWER     UPPER     LOWER   CHANNEL      BANK

     1  5.000E-01 5.000E-01 1.000E+00 1.000E+00 4.716E+03 4.634E+03 1.300E+01 1.300E+01                     3.000E-02
     2  5.000E-01 5.000E-01 1.000E+00 1.000E+00 4.629E+03 4.597E+03 1.300E+01 1.300E+01                     3.000E-02
     3  0.000E+00 0.000E+00 1.000E+00 1.000E+00 4.589E+03 4.564E+03 1.300E+01 1.300E+01                     3.000E-02
     4  1.000E+00 1.000E+00 1.000E+00 1.000E+00 4.591E+03 4.579E+03 9.000E+00 9.000E+00                     3.000E-02
     5  5.000E-01 5.000E-01 1.000E+00 1.000E+00 4.575E+03 4.566E+03 7.000E+00 7.000E+00                     3.000E-02
     6  0.000E+00 0.000E+00 1.000E+00 1.000E+00 4.581E+03 4.547E+03 1.600E+01 1.600E+01                     3.000E-02
     7  1.000E+00 1.000E+00 1.000E+00 1.000E+00 4.545E+03 4.526E+03 1.000E+01 1.000E+01                     3.000E-02
     8  1.000E+00 1.000E+00 1.000E+00 1.000E+00 4.523E+03 4.506E+03 8.000E+00 8.000E+00                     3.000E-02
     9  0.000E+00 0.000E+00 1.000E+00 1.000E+00 4.527E+03 4.510E+03 1.000E+01 1.000E+01                     3.000E-02
    10  1.500E-01 1.500E-01 1.000E+00 1.000E+00 4.634E+03 4.594E+03 1.200E+01 1.200E+01                     3.000E-02
    11  0.000E+00 0.000E+00 1.000E+00 1.000E+00 4.588E+03 4.578E+03 1.000E+01 1.000E+01                     3.000E-02
    12  5.000E-01 5.000E-01 1.000E+00 1.000E+00 4.590E+03 4.526E+03 1.000E+01 1.000E+01                     3.000E-02
    13  0.000E+00 0.000E+00 1.000E+00 1.000E+00 4.529E+03 4.500E+03 1.200E+01 1.200E+01                     3.000E-02
    14  1.000E+00 1.000E+00 1.000E+00 1.000E+00 4.521E+03 4.519E+03 1.000E+01 1.000E+01                     3.000E-02
    15  1.000E+00 1.000E+00 1.000E+00 1.000E+00 4.517E+03 4.505E+03 7.000E+00 7.000E+00                     3.000E-02
    16  0.000E+00 0.000E+00 1.000E+00 1.000E+00 4.516E+03 4.490E+03 1.000E+01 1.000E+01                     3.000E-02
    17  1.000E+00 1.000E+00 1.000E+00 1.000E+00 4.499E+03 4.484E+03 8.000E+00 8.000E+00                     3.000E-02
    18  1.000E+00 1.000E+00 1.000E+00 1.000E+00 4.481E+03 4.477E+03 8.000E+00 8.000E+00                     3.000E-02
    19  0.000E+00 0.000E+00 1.000E+00 1.000E+00 4.480E+03 4.478E+03 1.000E+01 1.000E+01                     3.000E-02
    20  0.000E+00 0.000E+00 1.000E+00 1.000E+00 4.479E+03 4.474E+03 4.000E+00 4.000E+00                     3.000E-02
    21  0.000E+00 0.000E+00 1.000E+00 1.000E+00 4.478E+03 4.475E+03 1.000E+01 1.000E+01                     3.000E-02
    22  5.000E-01 5.000E-01 1.000E+00 1.000E+00 4.476E+03 4.459E+03 1.600E+01 1.600E+01                     3.000E-02
    23  1.000E+00 1.000E+00 1.000E+00 1.000E+00 4.459E+03 4.450E+03 1.800E+01 1.800E+01                     3.000E-02
    24  0.000E+00 0.000E+00 1.000E+00 1.000E+00 4.461E+03 4.453E+03 1.000E+01 1.000E+01                     3.000E-02



 OUTER ITERATION NUMBER:     1
 BACKTRACK COUNT=  0 ACCEPTED RESIDUAL=  0.2819642E+11INCOMING RESIDUAL=  0.2819642E+11IBT=  0
0
     5 ITERATIONS FOR TIME STEP        1 IN STRESS PERIOD       2

 MAXIMUM HEAD CHANGE FOR EACH ITERATION:

    HEAD CHANGE   HEAD CHANGE   HEAD CHANGE   HEAD CHANGE   HEAD CHANGE
  LAYER,ROW,COL LAYER,ROW,COL LAYER,ROW,COL LAYER,ROW,COL LAYER,ROW,COL
 ----------------------------------------------------------------------
      14.92         1.644        0.2100        0.2244E-01   -0.5270E-02
  (  1,  2, 45) (  1, 11, 14) (  1, 11, 14) (  1, 11, 14) (  1, 11, 12)

0OC -- OUTPUT CONTROL PACKAGE INPUT READ FROM UNIT 22

 HEAD/DRAWDOWN PRINTOUT FLAG = 1     TOTAL BUDGET PRINTOUT FLAG = 1
 CELL-BY-CELL FLOW TERM FLAG = 1

 OUTPUT FLAGS FOR ALL LAYERS ARE THE SAME:
   HEAD    DRAWDOWN  HEAD  DRAWDOWN
 PRINTOUT  PRINTOUT  SAVE    SAVE
 ----------------------------------
     0         0       1       1
 UBUDSV SAVING "         STORAGE" ON UNIT    50 AT TIME STEP     1, STRESS PERIOD     2
 UBUDSV SAVING "   CONSTANT HEAD" ON UNIT    50 AT TIME STEP     1, STRESS PERIOD     2
 UBUDSV SAVING "FLOW RIGHT FACE " ON UNIT    50 AT TIME STEP     1, STRESS PERIOD     2
 UBUDSV SAVING "FLOW FRONT FACE " ON UNIT    50 AT TIME STEP     1, STRESS PERIOD     2
 UBUDSV SAVING "        RECHARGE" ON UNIT    51 AT TIME STEP     1, STRESS PERIOD     2
 UBUDSV SAVING "              ET" ON UNIT    50 AT TIME STEP     1, STRESS PERIOD     2
 UBUDSV SAVING "  STREAM LEAKAGE" ON UNIT    50 AT TIME STEP     1, STRESS PERIOD     2

 HEAD WILL BE SAVED ON UNIT  30 AT END OF TIME STEP         1, STRESS PERIOD       2

 DRAWDOWN WILL BE SAVED ON UNIT  31 AT END OF TIME STEP         1, STRESS PERIOD       2
1
  VOLUMETRIC BUDGET FOR ENTIRE MODEL AT END OF TIME STEP       1 IN STRESS PERIOD       2
  -----------------------------------------------------------------------------

     CUMULATIVE VOLUMES      L**3       RATES FOR THIS TIME STEP      L**3/T
     ------------------                 ------------------------

           IN:                                      IN:
           ---                                      ---
             STORAGE =    54400792.0000               STORAGE =      284159.0938
       CONSTANT HEAD =           0.0000         CONSTANT HEAD =           0.0000
               WELLS =           0.0000                 WELLS =           0.0000
              DRAINS =           0.0000                DRAINS =           0.0000
            RECHARGE =   341576480.0000              RECHARGE =     3335707.0000
                  ET =           0.0000                    ET =           0.0000
       RIVER LEAKAGE =    28692530.0000         RIVER LEAKAGE =      107183.6875
     HEAD DEP BOUNDS =           0.0000       HEAD DEP BOUNDS =           0.0000
      STREAM LEAKAGE =   168825008.0000        STREAM LEAKAGE =      640601.0000

            TOTAL IN =   593494810.0000              TOTAL IN =     4367650.7812

          OUT:                                     OUT:
          ----                                     ----
             STORAGE =   140127520.0000               STORAGE =     2036654.1250
       CONSTANT HEAD =           0.0000         CONSTANT HEAD =           0.0000
               WELLS =           0.0000                 WELLS =           0.0000
              DRAINS =           0.0000                DRAINS =           0.0000
            RECHARGE =    66504000.0000              RECHARGE =      277100.0000
                  ET =     7734381.0000                    ET =      257812.7031
       RIVER LEAKAGE =   118679456.0000         RIVER LEAKAGE =      577993.8125
     HEAD DEP BOUNDS =    12016160.0000       HEAD DEP BOUNDS =       50000.7383
      STREAM LEAKAGE =   248244512.0000        STREAM LEAKAGE =     1161087.3750

           TOTAL OUT =   593306029.0000             TOTAL OUT =     4360648.7539

            IN - OUT =      188781.0000              IN - OUT =        7002.0273

 PERCENT DISCREPANCY =           0.03     PERCENT DISCREPANCY =           0.16






          TIME SUMMARY AT END OF TIME STEP         1 IN STRESS PERIOD         2
                    SECONDS       MINUTES        HOURS         DAYS          YEARS
                    -------------------------------------------------------------------
   TIME STEP LENGTH  2592000.      43200.00      720.0000      30.00000     8.2135521E-02
 STRESS PERIOD TIME  2592000.      43200.00      720.0000      30.00000     8.2135521E-02
         TOTAL TIME 2.0736000E+07  345600.0      5760.000      240.0000     0.6570842    
1
 OUTER ITERATION NUMBER:     1
 BACKTRACK COUNT=  0 ACCEPTED RESIDUAL=  0.8625916E+10INCOMING RESIDUAL=  0.8625916E+10IBT=  0
     4 ITERATIONS FOR TIME STEP        2 IN STRESS PERIOD       2

 MAXIMUM HEAD CHANGE FOR EACH ITERATION:

    HEAD CHANGE   HEAD CHANGE   HEAD CHANGE   HEAD CHANGE   HEAD CHANGE
  LAYER,ROW,COL LAYER,ROW,COL LAYER,ROW,COL LAYER,ROW,COL LAYER,ROW,COL
 ----------------------------------------------------------------------
      4.886        0.6203        0.8504E-01    0.9853E-02
  (  1,  2, 45) (  1, 11, 14) (  1, 11, 14) (  1, 11, 14)

0OC -- OUTPUT CONTROL PACKAGE INPUT READ FROM UNIT 22

 HEAD/DRAWDOWN PRINTOUT FLAG = 1     TOTAL BUDGET PRINTOUT FLAG = 1
 CELL-BY-CELL FLOW TERM FLAG = 1

 OUTPUT FLAGS FOR ALL LAYERS ARE THE SAME:
   HEAD    DRAWDOWN  HEAD  DRAWDOWN
 PRINTOUT  PRINTOUT  SAVE    SAVE
 ----------------------------------
     0         0       1       1
 UBUDSV SAVING "         STORAGE" ON UNIT    50 AT TIME STEP     2, STRESS PERIOD     2
 UBUDSV SAVING "   CONSTANT HEAD" ON UNIT    50 AT TIME STEP     2, STRESS PERIOD     2
 UBUDSV SAVING "FLOW RIGHT FACE " ON UNIT    50 AT TIME STEP     2, STRESS PERIOD     2
 UBUDSV SAVING "FLOW FRONT FACE " ON UNIT    50 AT TIME STEP     2, STRESS PERIOD     2
 UBUDSV SAVING "        RECHARGE" ON UNIT    51 AT TIME STEP     2, STRESS PERIOD     2
 UBUDSV SAVING "              ET" ON UNIT    50 AT TIME STEP     2, STRESS PERIOD     2
 UBUDSV SAVING "  STREAM LEAKAGE" ON UNIT    50 AT TIME STEP     2, STRESS PERIOD     2

 HEAD WILL BE SAVED ON UNIT  30 AT END OF TIME STEP         2, STRESS PERIOD       2

 DRAWDOWN WILL BE SAVED ON UNIT  31 AT END OF TIME STEP         2, STRESS PERIOD       2
1
  VOLUMETRIC BUDGET FOR ENTIRE MODEL AT END OF TIME STEP       2 IN STRESS PERIOD       2
  -----------------------------------------------------------------------------

     CUMULATIVE VOLUMES      L**3       RATES FOR THIS TIME STEP      L**3/T
     ------------------                 ------------------------

           IN:                                      IN:
           ---                                      ---
             STORAGE =    58947660.0000               STORAGE =      151562.2188
       CONSTANT HEAD =           0.0000         CONSTANT HEAD =           0.0000
               WELLS =           0.0000                 WELLS =           0.0000
              DRAINS =           0.0000                DRAINS =           0.0000
            RECHARGE =   441647680.0000              RECHARGE =     3335707.0000
                  ET =           0.0000                    ET =           0.0000
       RIVER LEAKAGE =    31758152.0000         RIVER LEAKAGE =      102187.3828
     HEAD DEP BOUNDS =           0.0000       HEAD DEP BOUNDS =           0.0000
      STREAM LEAKAGE =   187926032.0000        STREAM LEAKAGE =      636700.9375

            TOTAL IN =   720279524.0000              TOTAL IN =     4226157.5391

          OUT:                                     OUT:
          ----                                     ----
             STORAGE =   192021152.0000               STORAGE =     1729787.5000
       CONSTANT HEAD =           0.0000         CONSTANT HEAD =           0.0000
               WELLS =           0.0000                 WELLS =           0.0000
              DRAINS =           0.0000                DRAINS =           0.0000
            RECHARGE =    74817000.0000              RECHARGE =      277100.0000
                  ET =    15028242.0000                    ET =      243128.7031
       RIVER LEAKAGE =   137637632.0000         RIVER LEAKAGE =      631939.0000
     HEAD DEP BOUNDS =    13516739.0000       HEAD DEP BOUNDS =       50019.3164
      STREAM LEAKAGE =   286866752.0000        STREAM LEAKAGE =     1287407.7500

           TOTAL OUT =   719887517.0000             TOTAL OUT =     4219382.2695

            IN - OUT =      392007.0000              IN - OUT =        6775.2695

 PERCENT DISCREPANCY =           0.05     PERCENT DISCREPANCY =           0.16






          TIME SUMMARY AT END OF TIME STEP         2 IN STRESS PERIOD         2
                    SECONDS       MINUTES        HOURS         DAYS          YEARS
                    -------------------------------------------------------------------
   TIME STEP LENGTH  2592000.      43200.00      720.0000      30.00000     8.2135521E-02
 STRESS PERIOD TIME  5184000.      86400.00      1440.000      60.00000     0.1642710    
         TOTAL TIME 2.3328000E+07  388800.0      6480.000      270.0000     0.7392197    
1
 OUTER ITERATION NUMBER:     1
 BACKTRACK COUNT=  0 ACCEPTED RESIDUAL=  0.5024519E+10INCOMING RESIDUAL=  0.5024519E+10IBT=  0
     4 ITERATIONS FOR TIME STEP        3 IN STRESS PERIOD       2

 MAXIMUM HEAD CHANGE FOR EACH ITERATION:

    HEAD CHANGE   HEAD CHANGE   HEAD CHANGE   HEAD CHANGE   HEAD CHANGE
  LAYER,ROW,COL LAYER,ROW,COL LAYER,ROW,COL LAYER,ROW,COL LAYER,ROW,COL
 ----------------------------------------------------------------------
      1.627        0.7523        0.2901E-01    0.3584E-02
  (  1, 38, 16) (  1, 38, 18) (  1, 11, 14) (  1, 11, 14)

0OC -- OUTPUT CONTROL PACKAGE INPUT READ FROM UNIT 22

 HEAD/DRAWDOWN PRINTOUT FLAG = 1     TOTAL BUDGET PRINTOUT FLAG = 1
 CELL-BY-CELL FLOW TERM FLAG = 1

 OUTPUT FLAGS FOR ALL LAYERS ARE THE SAME:
   HEAD    DRAWDOWN  HEAD  DRAWDOWN
 PRINTOUT  PRINTOUT  SAVE    SAVE
 ----------------------------------
     0         0       1       1
 UBUDSV SAVING "         STORAGE" ON UNIT    50 AT TIME STEP     3, STRESS PERIOD     2
 UBUDSV SAVING "   CONSTANT HEAD" ON UNIT    50 AT TIME STEP     3, STRESS PERIOD     2
 UBUDSV SAVING "FLOW RIGHT FACE " ON UNIT    50 AT TIME STEP     3, STRESS PERIOD     2
 UBUDSV SAVING "FLOW FRONT FACE " ON UNIT    50 AT TIME STEP     3, STRESS PERIOD     2
 UBUDSV SAVING "        RECHARGE" ON UNIT    51 AT TIME STEP     3, STRESS PERIOD     2
 UBUDSV SAVING "              ET" ON UNIT    50 AT TIME STEP     3, STRESS PERIOD     2
 UBUDSV SAVING "  STREAM LEAKAGE" ON UNIT    50 AT TIME STEP     3, STRESS PERIOD     2

 HEAD WILL BE SAVED ON UNIT  30 AT END OF TIME STEP         3, STRESS PERIOD       2

 DRAWDOWN WILL BE SAVED ON UNIT  31 AT END OF TIME STEP         3, STRESS PERIOD       2
1
  VOLUMETRIC BUDGET FOR ENTIRE MODEL AT END OF TIME STEP       3 IN STRESS PERIOD       2
  -----------------------------------------------------------------------------

     CUMULATIVE VOLUMES      L**3       RATES FOR THIS TIME STEP      L**3/T
     ------------------                 ------------------------

           IN:                                      IN:
           ---                                      ---
             STORAGE =    61611660.0000               STORAGE =       88799.9453
       CONSTANT HEAD =           0.0000         CONSTANT HEAD =           0.0000
               WELLS =           0.0000                 WELLS =           0.0000
              DRAINS =           0.0000                DRAINS =           0.0000
            RECHARGE =   541718912.0000              RECHARGE =     3335707.0000
                  ET =           0.0000                    ET =           0.0000
       RIVER LEAKAGE =    34729632.0000         RIVER LEAKAGE =       99049.3359
     HEAD DEP BOUNDS =           0.0000       HEAD DEP BOUNDS =           0.0000
      STREAM LEAKAGE =   207047728.0000        STREAM LEAKAGE =      637389.6250

            TOTAL IN =   845107932.0000              TOTAL IN =     4160945.9062

          OUT:                                     OUT:
          ----                                     ----
             STORAGE =   237287424.0000               STORAGE =     1508875.8750
       CONSTANT HEAD =           0.0000         CONSTANT HEAD =           0.0000
               WELLS =           0.0000                 WELLS =           0.0000
              DRAINS =           0.0000                DRAINS =           0.0000
            RECHARGE =    83130000.0000              RECHARGE =      277100.0000
                  ET =    22322522.0000                    ET =      243142.6875
       RIVER LEAKAGE =   157661552.0000         RIVER LEAKAGE =      667464.1875
     HEAD DEP BOUNDS =    15016836.0000       HEAD DEP BOUNDS =       50003.2266
      STREAM LEAKAGE =   329089408.0000        STREAM LEAKAGE =     1407422.3750

           TOTAL OUT =   844507742.0000             TOTAL OUT =     4154008.3516

            IN - OUT =      600190.0000              IN - OUT =        6937.5547

 PERCENT DISCREPANCY =           0.07     PERCENT DISCREPANCY =           0.17






          TIME SUMMARY AT END OF TIME STEP         3 IN STRESS PERIOD         2
                    SECONDS       MINUTES        HOURS         DAYS          YEARS
[...]

          OUT:                                     OUT:
          ----                                     ----
             STORAGE =  2285830144.0000               STORAGE =     1627031.0000
       CONSTANT HEAD =           0.0000         CONSTANT HEAD =           0.0000
               WELLS =           0.0000                 WELLS =           0.0000
              DRAINS =           0.0000                DRAINS =           0.0000
            RECHARGE =   964308864.0000              RECHARGE =      277100.0000
                  ET =   378727872.0000                    ET =      299745.3125
       RIVER LEAKAGE =  2337490944.0000         RIVER LEAKAGE =      706974.3750
     HEAD DEP BOUNDS =   171513584.0000       HEAD DEP BOUNDS =       49199.2891
      STREAM LEAKAGE =  5077938688.0000        STREAM LEAKAGE =     1455734.5000

           TOTAL OUT = 11215810096.0000             TOTAL OUT =     4415784.4766

            IN - OUT =     9275376.0000              IN - OUT =        6165.9453

 PERCENT DISCREPANCY =           0.08     PERCENT DISCREPANCY =           0.14






          TIME SUMMARY AT END OF TIME STEP         1 IN STRESS PERIOD        20
                    SECONDS       MINUTES        HOURS         DAYS          YEARS
                    -------------------------------------------------------------------
   TIME STEP LENGTH  2592000.      43200.00      720.0000      30.00000     8.2135521E-02
 STRESS PERIOD TIME  2592000.      43200.00      720.0000      30.00000     8.2135521E-02
         TOTAL TIME 3.0067200E+08  5011200.      83520.00      3480.000      9.527720    
1
 OUTER ITERATION NUMBER:     1
 BACKTRACK COUNT=  0 ACCEPTED RESIDUAL=  0.6690120E+10INCOMING RESIDUAL=  0.6690120E+10IBT=  0
     4 ITERATIONS FOR TIME STEP        2 IN STRESS PERIOD      20

 MAXIMUM HEAD CHANGE FOR EACH ITERATION:

    HEAD CHANGE   HEAD CHANGE   HEAD CHANGE   HEAD CHANGE   HEAD CHANGE
  LAYER,ROW,COL LAYER,ROW,COL LAYER,ROW,COL LAYER,ROW,COL LAYER,ROW,COL
 ----------------------------------------------------------------------
      4.884         1.440        0.8486E-01    0.9856E-02
  (  1,  2, 45) (  1, 38, 18) (  1, 11, 14) (  1, 11, 14)

0OC -- OUTPUT CONTROL PACKAGE INPUT READ FROM UNIT 22

 HEAD/DRAWDOWN PRINTOUT FLAG = 1     TOTAL BUDGET PRINTOUT FLAG = 1
 CELL-BY-CELL FLOW TERM FLAG = 1

 OUTPUT FLAGS FOR ALL LAYERS ARE THE SAME:
   HEAD    DRAWDOWN  HEAD  DRAWDOWN
 PRINTOUT  PRINTOUT  SAVE    SAVE
 ----------------------------------
     0         0       1       1
 UBUDSV SAVING "         STORAGE" ON UNIT    50 AT TIME STEP     2, STRESS PERIOD    20
 UBUDSV SAVING "   CONSTANT HEAD" ON UNIT    50 AT TIME STEP     2, STRESS PERIOD    20
 UBUDSV SAVING "FLOW RIGHT FACE " ON UNIT    50 AT TIME STEP     2, STRESS PERIOD    20
 UBUDSV SAVING "FLOW FRONT FACE " ON UNIT    50 AT TIME STEP     2, STRESS PERIOD    20
 UBUDSV SAVING "        RECHARGE" ON UNIT    51 AT TIME STEP     2, STRESS PERIOD    20
 UBUDSV SAVING "              ET" ON UNIT    50 AT TIME STEP     2, STRESS PERIOD    20
 UBUDSV SAVING "  STREAM LEAKAGE" ON UNIT    50 AT TIME STEP     2, STRESS PERIOD    20

 HEAD WILL BE SAVED ON UNIT  30 AT END OF TIME STEP         2, STRESS PERIOD      20

 DRAWDOWN WILL BE SAVED ON UNIT  31 AT END OF TIME STEP         2, STRESS PERIOD      20
1
  VOLUMETRIC BUDGET FOR ENTIRE MODEL AT END OF TIME STEP       2 IN STRESS PERIOD      20
  -----------------------------------------------------------------------------

     CUMULATIVE VOLUMES      L**3       RATES FOR THIS TIME STEP      L**3/T
     ------------------                 ------------------------

           IN:                                      IN:
           ---                                      ---
             STORAGE =  1535471360.0000               STORAGE =      221020.6719
       CONSTANT HEAD =           0.0000         CONSTANT HEAD =           0.0000
               WELLS =           0.0000                 WELLS =           0.0000
              DRAINS =           0.0000                DRAINS =           0.0000
            RECHARGE =  7118400512.0000              RECHARGE =     3335707.0000
                  ET =           0.0000                    ET =           0.0000
       RIVER LEAKAGE =   367562816.0000         RIVER LEAKAGE =       98893.6797
     HEAD DEP BOUNDS =           0.0000       HEAD DEP BOUNDS =           0.0000
      STREAM LEAKAGE =  2331831296.0000        STREAM LEAKAGE =      617057.3125

            TOTAL IN = 11353265984.0000              TOTAL IN =     4272678.6641

          OUT:                                     OUT:
          ----                                     ----
             STORAGE =  2325423104.0000               STORAGE =     1319764.2500
       CONSTANT HEAD =           0.0000         CONSTANT HEAD =           0.0000
               WELLS =           0.0000                 WELLS =           0.0000
              DRAINS =           0.0000                DRAINS =           0.0000
            RECHARGE =   972621888.0000              RECHARGE =      277100.0000
                  ET =   387086976.0000                    ET =      278636.9062
       RIVER LEAKAGE =  2360087040.0000         RIVER LEAKAGE =      753203.1875
     HEAD DEP BOUNDS =   172992080.0000       HEAD DEP BOUNDS =       49283.2617
      STREAM LEAKAGE =  5125595136.0000        STREAM LEAKAGE =     1588543.3750

           TOTAL OUT = 11343806224.0000             TOTAL OUT =     4266530.9805

            IN - OUT =     9459760.0000              IN - OUT =        6147.6836

 PERCENT DISCREPANCY =           0.08     PERCENT DISCREPANCY =           0.14






          TIME SUMMARY AT END OF TIME STEP         2 IN STRESS PERIOD        20
                    SECONDS       MINUTES        HOURS         DAYS          YEARS
                    -------------------------------------------------------------------
   TIME STEP LENGTH  2592000.      43200.00      720.0000      30.00000     8.2135521E-02
 STRESS PERIOD TIME  5184000.      86400.00      1440.000      60.00000     0.1642710    
         TOTAL TIME 3.0326400E+08  5054400.      84240.00      3510.000      9.609857    
1
 OUTER ITERATION NUMBER:     1
 BACKTRACK COUNT=  0 ACCEPTED RESIDUAL=  0.3484864E+10INCOMING RESIDUAL=  0.3484864E+10IBT=  0
     4 ITERATIONS FOR TIME STEP        3 IN STRESS PERIOD      20

 MAXIMUM HEAD CHANGE FOR EACH ITERATION:

    HEAD CHANGE   HEAD CHANGE   HEAD CHANGE   HEAD CHANGE   HEAD CHANGE
  LAYER,ROW,COL LAYER,ROW,COL LAYER,ROW,COL LAYER,ROW,COL LAYER,ROW,COL
 ----------------------------------------------------------------------
      2.424         1.260        0.3116E-01    0.3558E-02
  (  1, 42,  8) (  1, 38, 16) (  1, 38, 16) (  1, 11, 14)

0OC -- OUTPUT CONTROL PACKAGE INPUT READ FROM UNIT 22

 HEAD/DRAWDOWN PRINTOUT FLAG = 1     TOTAL BUDGET PRINTOUT FLAG = 1
 CELL-BY-CELL FLOW TERM FLAG = 1

 OUTPUT FLAGS FOR ALL LAYERS ARE THE SAME:
   HEAD    DRAWDOWN  HEAD  DRAWDOWN
 PRINTOUT  PRINTOUT  SAVE    SAVE
 ----------------------------------
     0         0       1       1
 UBUDSV SAVING "         STORAGE" ON UNIT    50 AT TIME STEP     3, STRESS PERIOD    20
 UBUDSV SAVING "   CONSTANT HEAD" ON UNIT    50 AT TIME STEP     3, STRESS PERIOD    20
 UBUDSV SAVING "FLOW RIGHT FACE " ON UNIT    50 AT TIME STEP     3, STRESS PERIOD    20
 UBUDSV SAVING "FLOW FRONT FACE " ON UNIT    50 AT TIME STEP     3, STRESS PERIOD    20
 UBUDSV SAVING "        RECHARGE" ON UNIT    51 AT TIME STEP     3, STRESS PERIOD    20
 UBUDSV SAVING "              ET" ON UNIT    50 AT TIME STEP     3, STRESS PERIOD    20
 UBUDSV SAVING "  STREAM LEAKAGE" ON UNIT    50 AT TIME STEP     3, STRESS PERIOD    20

 HEAD WILL BE SAVED ON UNIT  30 AT END OF TIME STEP         3, STRESS PERIOD      20

 DRAWDOWN WILL BE SAVED ON UNIT  31 AT END OF TIME STEP         3, STRESS PERIOD      20
1
  VOLUMETRIC BUDGET FOR ENTIRE MODEL AT END OF TIME STEP       3 IN STRESS PERIOD      20
  -----------------------------------------------------------------------------

     CUMULATIVE VOLUMES      L**3       RATES FOR THIS TIME STEP      L**3/T
     ------------------                 ------------------------

           IN:                                      IN:
           ---                                      ---
             STORAGE =  1540065792.0000               STORAGE =      153146.7031
       CONSTANT HEAD =           0.0000         CONSTANT HEAD =           0.0000
               WELLS =           0.0000                 WELLS =           0.0000
              DRAINS =           0.0000                DRAINS =           0.0000
            RECHARGE =  7218471936.0000              RECHARGE =     3335707.0000
                  ET =           0.0000                    ET =           0.0000
       RIVER LEAKAGE =   370444096.0000         RIVER LEAKAGE =       96042.3516
     HEAD DEP BOUNDS =           0.0000       HEAD DEP BOUNDS =           0.0000
      STREAM LEAKAGE =  2350169344.0000        STREAM LEAKAGE =      611272.1250

            TOTAL IN = 11479151168.0000              TOTAL IN =     4196168.1797

          OUT:                                     OUT:
          ----                                     ----
             STORAGE =  2358345216.0000               STORAGE =     1097400.5000
       CONSTANT HEAD =           0.0000         CONSTANT HEAD =           0.0000
               WELLS =           0.0000                 WELLS =           0.0000
              DRAINS =           0.0000                DRAINS =           0.0000
            RECHARGE =   980934912.0000              RECHARGE =      277100.0000
                  ET =   395317600.0000                    ET =      274353.6250
       RIVER LEAKAGE =  2383523328.0000         RIVER LEAKAGE =      781205.6250
     HEAD DEP BOUNDS =   174472016.0000       HEAD DEP BOUNDS =       49330.9453
      STREAM LEAKAGE =  5176901632.0000        STREAM LEAKAGE =     1710220.5000

           TOTAL OUT = 11469494704.0000             TOTAL OUT =     4189611.1953

            IN - OUT =     9656464.0000              IN - OUT =        6556.9844

 PERCENT DISCREPANCY =           0.08     PERCENT DISCREPANCY =           0.16






          TIME SUMMARY AT END OF TIME STEP         3 IN STRESS PERIOD        20
                    SECONDS       MINUTES        HOURS         DAYS          YEARS
                    -------------------------------------------------------------------
   TIME STEP LENGTH  2592000.      43200.00      720.0000      30.00000     8.2135521E-02
 STRESS PERIOD TIME  7776000.      129600.0      2160.000      90.00000     0.2464066    
         TOTAL TIME 3.0585600E+08  5097600.      84960.00      3540.000      9.691992    
1
 OUTER ITERATION NUMBER:     1
 BACKTRACK COUNT=  0 ACCEPTED RESIDUAL=  0.2097238E+10INCOMING RESIDUAL=  0.2097238E+10IBT=  0
     4 ITERATIONS FOR TIME STEP        4 IN STRESS PERIOD      20

 MAXIMUM HEAD CHANGE FOR EACH ITERATION:

    HEAD CHANGE   HEAD CHANGE   HEAD CHANGE   HEAD CHANGE   HEAD CHANGE
  LAYER,ROW,COL LAYER,ROW,COL LAYER,ROW,COL LAYER,ROW,COL LAYER,ROW,COL
 ----------------------------------------------------------------------
      1.120        0.1683        0.1017E-01    0.1303E-02
  (  1, 41,  8) (  1, 36, 15) (  1, 11, 14) (  1, 11, 14)

0OC -- OUTPUT CONTROL PACKAGE INPUT READ FROM UNIT 22

 HEAD/DRAWDOWN PRINTOUT FLAG = 1     TOTAL BUDGET PRINTOUT FLAG = 1
 CELL-BY-CELL FLOW TERM FLAG = 1

 OUTPUT FLAGS FOR ALL LAYERS ARE THE SAME:
   HEAD    DRAWDOWN  HEAD  DRAWDOWN
 PRINTOUT  PRINTOUT  SAVE    SAVE
 ----------------------------------
     0         0       1       1
 UBUDSV SAVING "         STORAGE" ON UNIT    50 AT TIME STEP     4, STRESS PERIOD    20
 UBUDSV SAVING "   CONSTANT HEAD" ON UNIT    50 AT TIME STEP     4, STRESS PERIOD    20
 UBUDSV SAVING "FLOW RIGHT FACE " ON UNIT    50 AT TIME STEP     4, STRESS PERIOD    20
 UBUDSV SAVING "FLOW FRONT FACE " ON UNIT    50 AT TIME STEP     4, STRESS PERIOD    20
 UBUDSV SAVING "        RECHARGE" ON UNIT    51 AT TIME STEP     4, STRESS PERIOD    20
 UBUDSV SAVING "              ET" ON UNIT    50 AT TIME STEP     4, STRESS PERIOD    20
 UBUDSV SAVING "  STREAM LEAKAGE" ON UNIT    50 AT TIME STEP     4, STRESS PERIOD    20

 HEAD WILL BE SAVED ON UNIT  30 AT END OF TIME STEP         4, STRESS PERIOD      20

 DRAWDOWN WILL BE SAVED ON UNIT  31 AT END OF TIME STEP         4, STRESS PERIOD      20
1
  VOLUMETRIC BUDGET FOR ENTIRE MODEL AT END OF TIME STEP       4 IN STRESS PERIOD      20
  -----------------------------------------------------------------------------

     CUMULATIVE VOLUMES      L**3       RATES FOR THIS TIME STEP      L**3/T
     ------------------                 ------------------------

           IN:                                      IN:
           ---                                      ---
             STORAGE =  1543499264.0000               STORAGE =      114448.8359
       CONSTANT HEAD =           0.0000         CONSTANT HEAD =           0.0000
               WELLS =           0.0000                 WELLS =           0.0000
              DRAINS =           0.0000                DRAINS =           0.0000
            RECHARGE =  7318543360.0000              RECHARGE =     3335707.0000
                  ET =           0.0000                    ET =           0.0000
       RIVER LEAKAGE =   373272768.0000         RIVER LEAKAGE =       94289.4922
     HEAD DEP BOUNDS =           0.0000       HEAD DEP BOUNDS =           0.0000
      STREAM LEAKAGE =  2368212224.0000        STREAM LEAKAGE =      601430.6875

            TOTAL IN = 11603527616.0000              TOTAL IN =     4145876.0156

          OUT:                                     OUT:
          ----                                     ----
             STORAGE =  2386312704.0000               STORAGE =      932250.4375
       CONSTANT HEAD =           0.0000         CONSTANT HEAD =           0.0000
               WELLS =           0.0000                 WELLS =           0.0000
              DRAINS =           0.0000                DRAINS =           0.0000
            RECHARGE =   989247936.0000              RECHARGE =      277100.0000
                  ET =   403600128.0000                    ET =      276084.1875
       RIVER LEAKAGE =  2407504128.0000         RIVER LEAKAGE =      799358.8125
     HEAD DEP BOUNDS =   175952752.0000       HEAD DEP BOUNDS =       49357.9414
      STREAM LEAKAGE =  5231059968.0000        STREAM LEAKAGE =     1805270.0000

           TOTAL OUT = 11593677616.0000             TOTAL OUT =     4139421.3789

            IN - OUT =     9850000.0000              IN - OUT =        6454.6367

 PERCENT DISCREPANCY =           0.08     PERCENT DISCREPANCY =           0.16






          TIME SUMMARY AT END OF TIME STEP         4 IN STRESS PERIOD        20
                    SECONDS       MINUTES        HOURS         DAYS          YEARS
                    -------------------------------------------------------------------
   TIME STEP LENGTH  2592000.      43200.00      720.0000      30.00000     8.2135521E-02
 STRESS PERIOD TIME 1.0368000E+07  172800.0      2880.000      120.0000     0.3285421    
         TOTAL TIME 3.0844800E+08  5140800.      85680.00      3570.000      9.774127    
1
 OUTER ITERATION NUMBER:     1
 BACKTRACK COUNT=  0 ACCEPTED RESIDUAL=  0.1329257E+10INCOMING RESIDUAL=  0.1329257E+10IBT=  0
     4 ITERATIONS FOR TIME STEP        5 IN STRESS PERIOD      20

 MAXIMUM HEAD CHANGE FOR EACH ITERATION:

    HEAD CHANGE   HEAD CHANGE   HEAD CHANGE   HEAD CHANGE   HEAD CHANGE
  LAYER,ROW,COL LAYER,ROW,COL LAYER,ROW,COL LAYER,ROW,COL LAYER,ROW,COL
 ----------------------------------------------------------------------
     0.9064        0.6291        0.3027E-01    0.1590E-02
  (  1, 41,  8) (  1, 41,  8) (  1, 41,  8) (  1, 41,  8)

0OC -- OUTPUT CONTROL PACKAGE INPUT READ FROM UNIT 22

 HEAD/DRAWDOWN PRINTOUT FLAG = 1     TOTAL BUDGET PRINTOUT FLAG = 1
 CELL-BY-CELL FLOW TERM FLAG = 1

 OUTPUT FLAGS FOR ALL LAYERS ARE THE SAME:
   HEAD    DRAWDOWN  HEAD  DRAWDOWN
 PRINTOUT  PRINTOUT  SAVE    SAVE
 ----------------------------------
     0         0       1       1
 UBUDSV SAVING "         STORAGE" ON UNIT    50 AT TIME STEP     5, STRESS PERIOD    20
 UBUDSV SAVING "   CONSTANT HEAD" ON UNIT    50 AT TIME STEP     5, STRESS PERIOD    20
 UBUDSV SAVING "FLOW RIGHT FACE " ON UNIT    50 AT TIME STEP     5, STRESS PERIOD    20
 UBUDSV SAVING "FLOW FRONT FACE " ON UNIT    50 AT TIME STEP     5, STRESS PERIOD    20
 UBUDSV SAVING "        RECHARGE" ON UNIT    51 AT TIME STEP     5, STRESS PERIOD    20
 UBUDSV SAVING "              ET" ON UNIT    50 AT TIME STEP     5, STRESS PERIOD    20
 UBUDSV SAVING "  STREAM LEAKAGE" ON UNIT    50 AT TIME STEP     5, STRESS PERIOD    20

 HEAD WILL BE SAVED ON UNIT  30 AT END OF TIME STEP         5, STRESS PERIOD      20

 DRAWDOWN WILL BE SAVED ON UNIT  31 AT END OF TIME STEP         5, STRESS PERIOD      20
1
  VOLUMETRIC BUDGET FOR ENTIRE MODEL AT END OF TIME STEP       5 IN STRESS PERIOD      20
  -----------------------------------------------------------------------------

     CUMULATIVE VOLUMES      L**3       RATES FOR THIS TIME STEP      L**3/T
     ------------------                 ------------------------

           IN:                                      IN:
           ---                                      ---
             STORAGE =  1546202624.0000               STORAGE =       90113.0078
       CONSTANT HEAD =           0.0000         CONSTANT HEAD =           0.0000
               WELLS =           0.0000                 WELLS =           0.0000
              DRAINS =           0.0000                DRAINS =           0.0000
            RECHARGE =  7418614784.0000              RECHARGE =     3335707.0000
                  ET =           0.0000                    ET =           0.0000
       RIVER LEAKAGE =   376068288.0000         RIVER LEAKAGE =       93183.7344
     HEAD DEP BOUNDS =           0.0000       HEAD DEP BOUNDS =           0.0000
      STREAM LEAKAGE =  2385815040.0000        STREAM LEAKAGE =      586760.0625

            TOTAL IN = 11726700736.0000              TOTAL IN =     4105763.8047

          OUT:                                     OUT:
          ----                                     ----
             STORAGE =  2410555392.0000               STORAGE =      808089.9375
       CONSTANT HEAD =           0.0000         CONSTANT HEAD =           0.0000
               WELLS =           0.0000                 WELLS =           0.0000
              DRAINS =           0.0000                DRAINS =           0.0000
            RECHARGE =   997560960.0000              RECHARGE =      277100.0000
                  ET =   411992160.0000                    ET =      279734.5312
       RIVER LEAKAGE =  2431841792.0000         RIVER LEAKAGE =      811251.4375
     HEAD DEP BOUNDS =   177433936.0000       HEAD DEP BOUNDS =       49373.0078
      STREAM LEAKAGE =  5287268352.0000        STREAM LEAKAGE =     1873609.1250

           TOTAL OUT = 11716652592.0000             TOTAL OUT =     4099158.0391

            IN - OUT =    10048144.0000              IN - OUT =        6605.7656

 PERCENT DISCREPANCY =           0.09     PERCENT DISCREPANCY =           0.16






          TIME SUMMARY AT END OF TIME STEP         5 IN STRESS PERIOD        20
                    SECONDS       MINUTES        HOURS         DAYS          YEARS
                    -------------------------------------------------------------------
   TIME STEP LENGTH  2592000.      43200.00      720.0000      30.00000     8.2135521E-02
 STRESS PERIOD TIME 1.2960000E+07  216000.0      3600.000      150.0000     0.4106776    
         TOTAL TIME 3.1104000E+08  5184000.      86400.00      3600.000      9.856263    
1


          ******* SIMULATION TIME =  4.88672    SECS *******


                    ********** END OF SIMULATION **********
