 LISTING FILE: M2.out
                         UNIT   6

 OPENING M2.bas
 FILE TYPE:BAS   UNIT   1

 OPENING M2.bcf
 FILE TYPE:BCF   UNIT  11

 OPENING M2.wel
 FILE TYPE:WEL   UNIT  12

 OPENING M2.drn
 FILE TYPE:DRN   UNIT  13

 OPENING M2.riv
 FILE TYPE:RIV   UNIT  78

 OPENING M2.evt
 FILE TYPE:EVT   UNIT  20

 OPENING M2.ghb
 FILE TYPE:GHB   UNIT  37

 OPENING M2.rch
 FILE TYPE:RCH   UNIT  18

 OPENING M2.oc
 FILE TYPE:OC   UNIT  22

 OPENING M2.pcg
 FILE TYPE:PG4   UNIT  14

 OPENING M2.sfr
 FILE TYPE:SFR   UNIT  81

 OPENING M2._s1
 FILE TYPE:DATA   UNIT  72

 OPENING M2._kx
 FILE TYPE:DATA   UNIT  73

 OPENING M2._s2
 FILE TYPE:DATA   UNIT  71

 OPENING M2.cbb
 FILE TYPE:DATA(BINARY)   UNIT  50

 OPENING M2.cbw
 FILE TYPE:DATA(BINARY)   UNIT  54

 OPENING M2.crc
 FILE TYPE:DATA(BINARY)   UNIT  51

 OPENING M2.hds
 FILE TYPE:DATA(BINARY)   UNIT  30

 OPENING M2.ddn
 FILE TYPE:DATA(BINARY)   UNIT  31
1                          MODFLOW-SURFACT/MODHMS Version 3.0
      U.S. GEOLOGICAL SURVEY MODULAR FINITE-DIFFERENCE GROUND-WATER FLOW MODEL
    (HYDROGEOLOGIC'S ENHANCED VERSION OF USGS MODFLOW HYDROLOGIC MODELING SYSTEM)

 MODFLOW2000 Dataset Imported into Groundwater Vistas                                                                                
                                                                                                                                     
     1 LAYERS        57 ROWS        63 COLUMNS
       20 STRESS PERIOD(S) IN SIMULATION
 MODEL TIME UNIT IS DAYS
 CALCULATE FLOW BETWEEN ADJACENT CONSTANT-HEAD CELLS

 I/O UNITS:
 ELEMENT OF IUNIT:   1   2   3   4   5   6   7   8   9  10  11  12  13  14  15  16  17  18  19  20
 PACKAGE NAME    : BCF WEL DRN RIV EVT TLK GHB RCH SIP DE4 SOR OC  PG4 STR PG2 HFB BTN LAK IBS CHD
         I/O UNIT:  11  12  13  78  20   0  37  18   0   0   0  22  14   0   0   0   0   0   0   0

 ELEMENT OF IUNIT:  21  22  23  24  25  26  27  28  29  30  31  32  33  34  35  36  37  38  39  40
 PACKAGE NAME    : FWL ATO PCN HCN OLF CHF PRL OBS GFD FHB IPT RCT SLC LMG PG5 RES WL5 SFR LK3 GAG
         I/O UNIT:   0   0   0   0   0   0   0   0   0   0   0   0   0   0   0   0   0  81   0   0

 ELEMENT OF IUNIT:  41  42
 PACKAGE NAME    : ET2 LUC
         I/O UNIT:   0   0

 BAS5 -- BASIC MODEL PACKAGE, VERSION 5, 1/1/95 INPUT READ FROM UNIT  1
 ARRAYS RHS AND BUFF WILL HAVE SEPARATE MEMORY ALLOCATIONS
 INITIAL HEAD WILL BE KEPT THROUGHOUT THE SIMULATION
        53881 ELEMENTS IN X ARRAY ARE USED BY BAS
        53881 ELEMENTS OF X ARRAY USED

 BCF4 -- BLOCK-CENTERED FLOW PACKAGE, VERSION 4, 7/9/92 INPUT READ FROM UNIT 11
 TRANSIENT SIMULATION
 CELL-BY-CELL FLOWS WILL BE RECORDED ON UNIT 50
 HEAD AT CELLS THAT CONVERT TO DRY= -0.10000E+31
 WETTING CAPABILITY IS NOT ACTIVE
 UPSTREAM DIFFERENCING USED FOR RELATIVE PERMEABILITY
 LEAKANCE VALUES WILL BE READ IN BCF FILE
 ANISOTROPY WITHIN EACH LAYER VARIES CELL-BY-CELL
 RECTANGULAR MODFLOW GRID IS USED
      LAYER  AQUIFER TYPE    INTERBLOCK T
      -------------------------------------
         1         3         0-HARMONIC                
    28728 ELEMENTS IN X ARRAY ARE USED BY BCF
    82609 ELEMENTS OF X ARRAY USED

 WEL1 -- WELL PACKAGE, VERSION 5, 9/1/93 INPUT READ FROM 12
 MAXIMUM OF   59 WELLS
 CELL-BY-CELL FLOWS WILL BE RECORDED ON UNIT 54
      236 ELEMENTS IN X ARRAY ARE USED FOR WELLS
      82845 ELEMENTS OF X ARRAY USED

 DRN1 -- DRAIN PACKAGE, VERSION 1, 9/1/87 INPUT READ FROM UNIT 13
 MAXIMUM OF    0 DRAINS
 CELL-BY-CELL FLOWS WILL BE RECORDED ON UNIT 50
        0 ELEMENTS IN X ARRAY ARE USED FOR DRAINS
      82845 ELEMENTS OF X ARRAY USED

 RSF4 -- RECHARGE SEEPAGE FACE PACKAGE, 12/23/95  INPUT READ FROM UNIT 18
 OPTION 3 -- RECHARGE TO HIGHEST ACTIVE NODE IN EACH VERTICAL COLUMN
 CELL-BY-CELL FLOW TERMS WILL BE RECORDED ON UNIT 51
 MAXIMUM OF    0 SEEPAGE-FACE BOUNDARY NODES
 MAXIMUM OF    0 SEEPAGE-FACE BOUNDARY NODES
       7182 ELEMENTS OF X ARRAY USED FOR RSF4 PACKAGE
      90027 ELEMENTS OF X ARRAY USED

 EVT1 -- EVAPOTRANSPIRATION PACKAGE, VERSION 1, 9/1/87 INPUT READ FROM UNIT 20
 OPTION 1 -- EVAPOTRANSPIRATION FROM TOP LAYER OF GROUNDWATER SYSTEM
 CELL-BY-CELL FLOW TERMS WILL BE SAVED ON UNIT 50
      10773 ELEMENTS OF X ARRAY USED FOR EVAPOTRANSPIRATION
     100800 ELEMENTS OF X ARRAY USED

 RIV1 -- RIVER PACKAGE, VERSION 1, 9/1/87 INPUT READ FROM UNIT 78
 MAXIMUM OF   66 RIVER NODES
      396 ELEMENTS IN X ARRAY ARE USED FOR RIVERS
   101196 ELEMENTS OF X ARRAY USED

 GHB1 -- GHB PACKAGE, VERSION 1, 9/1/87 INPUT READ FROM UNIT 37
 MAXIMUM OF   14 HEAD-DEPENDENT BOUNDARY NODES
       70 ELEMENTS IN X ARRAY ARE USED FOR HEAD-DEPENDENT BOUNDARIES
     101266 ELEMENTS OF X ARRAY USED
0PCG4 -- CONJUGATE GRADIENT SOLUTION PACKAGE, VERSION 3, 10/22/95 INPUT READ FROM UNIT 14
 MAXIMUM OF     100 CALLS OF SOLUTION ROUTINE
 MAXIMUM OF     600 INTERNAL ITERATIONS PER CALL TO SOLUTION ROUTINE
0

                                     SOLUTION BY THE CONJUGATE-GRADIENT METHOD
                                     -------------------------------------------
0                  MAXIMUM NUMBER OF CALLS TO PCG ROUTINE =      100
                       MAXIMUM ITERATIONS PER CALL TO PCG =      600
                 ONLY ACTIVE NODES INCLUDED IN THE SOLVER =        0
                        HEAD CHANGE CRITERION FOR CLOSURE =    0.10000E-01
                    RESIDUAL CHANGE CRITERION FOR CLOSURE =    0.10000E-04
                           SOLVER SUMMARY PRINTOUT INDEX  =        2
0FLOW SOLVER USES N-R METHOD
          BACKTRACKING INDEX (IBACKTR)  =        1
          BACKTRACKING FACTOR  (BFACT)  =    0.90000E+00
    RESIDUAL REDUCTION FACTOR (RESRED)  =    0.10000E+01
                                           INDEX FOR BOTTOM DAMPING (IDMPBOT) =         1
     194534 ELEMENTS IN X ARRAY ARE USED BY PCG
     295800 ELEMENTS OF X ARRAY USED 
      14364 ELEMENTS IN X ARRAY ARE USED FOR TRANSPORT
     310164 ELEMENTS OF X ARRAY USED

 SFR1 -- STREAMFLOW ROUTING PACKAGE, VERSION 1.4, 3/31/2005
         INPUT READ FROM UNIT  81
 # SFR Package for MODFLOW2000


 NUMBER OF STREAM NODES IS    203

 NUMBER OF STREAM SEGMENTS IS     24

 NUMBER OF STREAM PARAMETERS IS    0

 NUMBER OF STREAM SEGMENTS DEFINED USING PARAMETERS IS      0

 MAXIMUM DIFFERENCE IN STREAM HEAD BETWEEN ITERATONS IS   1.00E-02

 CONSTANT FOR MANNINGS EQUATION IS  1.2839E+05



 FLOW TO AND FROM GROUND WATER FOR EACH STREAM REACH WILL BE SAVED ON UNIT   50
 STREAMFLOW OUT OF EACH REACH WILL BE SAVED ON UNIT   58
       8113 ELEMENTS IN RX ARRAY ARE USED BY SFR
       1183 ELEMENTS IN IR ARRAY ARE USED BY SFR
!!!X ARRAY Allocated for     310175 Elements
!!!RX AND IR ARRAYS Allocated for      10333 Elements

 BAS5 -- BASIC MODEL PACKAGE, VERSION 5, 1/1/95 INPUT READ FROM UNIT  1
1
 MODFLOW2000 Dataset Imported into Groundwater Vistas                                                                                
                                                                                                                                     



                     BOUNDARY ARRAY FOR LAYER   1
 READING ON UNIT   1 WITH FORMAT: (25I3)              

 AQUIFER HEAD WILL BE SET TO  999.00     AT ALL NO-FLOW NODES (IBOUND=0).

 DATUM ADJUSTMENT IS    0.00000    



                       INITIAL HEAD FOR LAYER   1
 READING ON UNIT   1 WITH FORMAT: (10e12.4)           
0OC -- OUTPUT CONTROL PACKAGE INPUT READ FROM UNIT 22

 OUTPUT CONTROL IS SPECIFIED EVERY TIME STEP
 HEAD PRINT FORMAT CODE IS   0    DRAWDOWN PRINT FORMAT CODE IS   0

 HEADS WILL BE SAVED ON UNIT 30    DRAWDOWNS WILL BE SAVED ON UNIT 31

 OUTPUT CONTROL IS SPECIFIED EVERY TIME STEP

 BCF3 -- BLOCK-CENTERED FLOW PACKAGE, VERSION 3, 7/9/92 INPUT READ FROM UNIT 11

 COLUMN TO ROW ANISOTROPY =   1.000000     FOR LAYER   1

                     DELR =   1000.000    



                               DELC
 READING ON UNIT  11 WITH FORMAT: (10E12.4)           
   2000.0       1000.0       1000.0       1000.0       1000.0       1000.0       1000.0       1000.0       1000.0       1000.0    
   1000.0       1000.0       1000.0       1000.0       1000.0       1000.0       1000.0       1000.0       1000.0       1000.0    
   1000.0       1000.0       1000.0       1000.0       1000.0       1000.0       1000.0       1000.0       1000.0       1000.0    
   1000.0       1000.0       1000.0       1000.0       1000.0       1000.0       1000.0       1000.0       1000.0       1000.0    
   1000.0       1000.0       1000.0       1000.0       1000.0       1000.0       1000.0       1000.0       1000.0       1000.0    
   1000.0       1000.0       1000.0       1000.0       1000.0       1000.0       1000.0    



               PRIMARY STORAGE COEF FOR LAYER   1
 READING ON UNIT  72 WITH FORMAT: (10e12.4)           



              HYD. COND. ALONG ROWS FOR LAYER   1
 READING ON UNIT  73 WITH FORMAT: (10e12.4)           



                             BOTTOM FOR LAYER   1
 READING ON UNIT  11 WITH FORMAT: (10e12.4)           



             SECONDARY STORAGE COEF FOR LAYER   1
 READING ON UNIT  71 WITH FORMAT: (10e12.4)           



                                TOP FOR LAYER   1
 READING ON UNIT  11 WITH FORMAT: (10e12.4)           

 BAS5 -- BASIC MODEL PACKAGE, VERSION 5, 1/1/95 INPUT READ FROM UNIT  1
1                                                   STRESS PERIOD NO.       1, LENGTH =   210.0000    
                                                    ----------------------------------------------

                                                    NUMBER OF TIME STEPS =       7

                                                     MULTIPLIER FOR DELT =     1.000

                                                  INITIAL TIME STEP SIZE =   30.00000    

 WEL1 -- WELL PACKAGE, VERSION 5, 9/1/93 INPUT READ FROM 12

                 59 WELLS

 LAYER   ROW   COL   STRESS RATE   WELL NO.
 ------------------------------------------
     1     21    30     0.0000          1
     1     22    32     0.0000          2
     1     23    20     0.0000          3
     1     23    24     0.0000          4
     1     23    26     0.0000          5
     1     23    32     0.0000          6
     1     24    21     0.0000          7
     1     24    26     0.0000          8
     1     24    29     0.0000          9
     1     25    19     0.0000         10
     1     25    23     0.0000         11
     1     25    28     0.0000         12
     1     26    27     0.0000         13
     1     26    28     0.0000         14
     1     26    29     0.0000         15
     1     27    17     0.0000         16
     1     27    21     0.0000         17
     1     27    25     0.0000         18
     1     27    30     0.0000         19
     1     28    14     0.0000         20
     1     28    21     0.0000         21
     1     29    20     0.0000         22
     1     29    28     0.0000         23
     1     30    43     0.0000         24
     1     31     5     0.0000         25
     1     36    47     0.0000         26
     1     38    14     0.0000         27
     1     39     5     0.0000         28
     1     39    13     0.0000         29
     1     39    15     0.0000         30
     1     39    19     0.0000         31
     1     40     6     0.0000         32
     1     40    15     0.0000         33
     1     40    16     0.0000         34
     1     40    18     0.0000         35
     1     40    31     0.0000         36
     1     41    14     0.0000         37
     1     41    15     0.0000         38
     1     41    19     0.0000         39
     1     41    35     0.0000         40
     1     41    36     0.0000         41
     1     41    53     0.0000         42
     1     42    12     0.0000         43
     1     42    13     0.0000         44
     1     42    27     0.0000         45
     1     42    52     0.0000         46
     1     43    18     0.0000         47
     1     43    53     0.0000         48
     1     44    25     0.0000         49
     1     44    53     0.0000         50
     1     44    54     0.0000         51
     1     45    21     0.0000         52
     1     45    38     0.0000         53
     1     47    23     0.0000         54
     1     48    23     0.0000         55
     1     52    40     0.0000         56
     1     39    23     0.0000         57
     1     35    15     0.0000         58
     1     18    34     0.0000         59

 DRN1 -- DRAIN PACKAGE, VERSION 1, 9/1/87 INPUT READ FROM UNIT 13



     0 DRAINS

 RSF4 -- RECHARGE SEEPAGE FACE PACKAGE, 12/23/95  INPUT READ FROM UNIT 18



                           RECHARGE
 READING ON UNIT  18 WITH FORMAT: (10e12.4)           



     0 SEEPAGE-FACE BOUNDARY NODES

 EVT1 -- EVAPOTRANSPIRATION PACKAGE, VERSION 1, 9/1/87 INPUT READ FROM UNIT 20



                         ET SURFACE
 READING ON UNIT  20 WITH FORMAT: (10e12.4)           

  EVAPOTRANSPIRATION RATE =   0.000000    

         EXTINCTION DEPTH =   0.000000    

 RIV1 -- RIVER PACKAGE, VERSION 1, 9/1/87 INPUT READ FROM UNIT 78



    66 RIVER REACHES

 LAYER   ROW   COL     STAGE   CONDUCTANCE   BOT. ELEV.  REACH NO.
 -----------------------------------------------------------------
        1     17     7    4480.      0.5000E+06   4440.           1
        1     17     8    4480.      0.5000E+06   4440.           2
        1     18     6    4480.      0.5000E+06   4440.           3
        1     18     7    4480.      0.5000E+06   4440.           4
        1     18     8    4480.      0.5000E+06   4440.           5
        1     18     9    4480.      0.5000E+06   4440.           6
        1     18    10    4480.      0.5000E+06   4440.           7
        1     19     6    4480.      0.5000E+06   4440.           8
        1     19     7    4480.      0.5000E+06   4440.           9
        1     19     8    4480.      0.5000E+06   4440.          10
        1     19     9    4480.      0.5000E+06   4440.          11
        1     19    10    4480.      0.5000E+06   4440.          12
        1     19    11    4480.      0.5000E+06   4440.          13
        1     19    12    4480.      0.5000E+06   4440.          14
        1     20     6    4480.      0.5000E+06   4440.          15
        1     20     7    4480.      0.5000E+06   4440.          16
        1     20     8    4480.      0.5000E+06   4440.          17
        1     20     9    4480.      0.5000E+06   4440.          18
        1     20    10    4480.      0.5000E+06   4440.          19
        1     20    11    4480.      0.5000E+06   4440.          20
        1     20    12    4480.      0.5000E+06   4440.          21
        1     21     6    4480.      0.5000E+06   4440.          22
        1     21     7    4480.      0.5000E+06   4440.          23
        1     21     8    4480.      0.5000E+06   4440.          24
        1     21     9    4480.      0.5000E+06   4440.          25
        1     21    10    4480.      0.5000E+06   4440.          26
        1     21    11    4480.      0.5000E+06   4440.          27
        1     21    12    4480.      0.5000E+06   4440.          28
        1     21    13    4480.      0.5000E+06   4440.          29
        1     22     6    4480.      0.5000E+06   4440.          30
        1     22     7    4480.      0.5000E+06   4440.          31
        1     22     8    4480.      0.5000E+06   4440.          32
        1     22     9    4480.      0.5000E+06   4440.          33
        1     22    10    4480.      0.5000E+06   4440.          34
        1     22    11    4480.      0.5000E+06   4440.          35
        1     22    12    4480.      0.5000E+06   4440.          36
        1     22    13    4480.      0.5000E+06   4440.          37
        1     22    14    4480.      0.5000E+06   4440.          38
        1     23     6    4480.      0.5000E+06   4440.          39
        1     23     7    4480.      0.5000E+06   4440.          40
        1     23     8    4480.      0.5000E+06   4440.          41
        1     23     9    4480.      0.5000E+06   4440.          42
        1     23    10    4480.      0.5000E+06   4440.          43
        1     23    11    4480.      0.5000E+06   4440.          44
        1     23    12    4480.      0.5000E+06   4440.          45
        1     23    13    4480.      0.5000E+06   4440.          46
        1     23    14    4480.      0.5000E+06   4440.          47
        1     23    15    4480.      0.5000E+06   4440.          48
        1     24     7    4480.      0.5000E+06   4440.          49
        1     24     8    4480.      0.5000E+06   4440.          50
        1     24     9    4480.      0.5000E+06   4440.          51
        1     24    10    4480.      0.5000E+06   4440.          52
        1     24    11    4480.      0.5000E+06   4440.          53
        1     24    12    4480.      0.5000E+06   4440.          54
        1     24    13    4480.      0.5000E+06   4440.          55
        1     24    14    4480.      0.5000E+06   4440.          56
        1     24    15    4480.      0.5000E+06   4440.          57
        1     25     8    4480.      0.5000E+06   4440.          58
        1     25     9    4480.      0.5000E+06   4440.          59
        1     25    10    4480.      0.5000E+06   4440.          60
        1     25    11    4480.      0.5000E+06   4440.          61
        1     25    12    4480.      0.5000E+06   4440.          62
        1     25    13    4480.      0.5000E+06   4440.          63
        1     25    14    4480.      0.5000E+06   4440.          64
        1     26    10    4480.      0.5000E+06   4440.          65
        1     26    11    4480.      0.5000E+06   4440.          66

 GHB1 -- GHB PACKAGE, VERSION 1, 9/1/87 INPUT READ FROM UNIT 37



    14 HEAD-DEPENDENT BOUNDARY NODES

 LAYER   ROW   COL   ELEVATION   CONDUCTANCE   BOUND NO.
 -------------------------------------------------------
     1     20     1    4430.         500.0           1
     1     20     2    4430.         500.0           2
     1     20     3    4430.         500.0           3
     1     21     1    4430.         500.0           4
     1     21     2    4430.         500.0           5
     1     21     3    4430.         500.0           6
     1     22     1    4430.         500.0           7
     1     23     1    4430.         500.0           8
     1     24     1    4430.         500.0           9
     1     25     1    4430.         500.0          10
     1     26     1    4430.         500.0          11
     1     27     1    4430.         500.0          12
     1     28     1    4430.         500.0          13
     1     29     1    4430.         500.0          14



 CLASSIFICATION & COUNT OF STREAM SEGMENTS BASED ON SOURCE OF INFLOW:

                HEADWATER     DIVERSION     RECEIVES TRIBUTARY FLOW
                ---------     ---------     -----------------------
                     3              8              13



                    INPUT DATA FOR EACH STREAM SEGMENT
 ---------------------------------------------------------------------------------------------

 SEGMENT    SEG.     INFLOW   OVERLAND   STREAM    STREAM   ICALC  OUTFLOW  DIVERSION PRIORITY
    NO.    LENGTH     RATE     RUNOFF      ET       PPT.    METH.  TO SEG.  FROM SEG.    NO.

      1  2.219E+04 1.520E+06 0.000E+00 0.000E+00 0.000E+00    1        2        0        0
      2  9.402E+03 0.000E+00 0.000E+00 0.000E+00 0.000E+00    1        4        0        0
      3  1.034E+04 0.000E+00 0.000E+00 0.000E+00 0.000E+00    1        0        1        0
      4  7.065E+03 0.000E+00 0.000E+00 0.000E+00 0.000E+00    1        5        0        0
      5  4.524E+03 0.000E+00 0.000E+00 0.000E+00 0.000E+00    1        7        0        0
      6  2.167E+04 0.000E+00 0.000E+00 0.000E+00 0.000E+00    1        0        4        0
      7  1.083E+04 0.000E+00 0.000E+00 0.000E+00 0.000E+00    1        8        0        0
      8  5.534E+03 0.000E+00 0.000E+00 0.000E+00 0.000E+00    1       17        0        0
      9  8.029E+03 0.000E+00 0.000E+00 0.000E+00 0.000E+00    1        0        7        0
     10  1.067E+04 3.234E+05 0.000E+00 0.000E+00 0.000E+00    1       12        0        0
     11  4.927E+03 1.296E+05 0.000E+00 0.000E+00 0.000E+00    1       12        0        0
     12  1.640E+04 0.000E+00 0.000E+00 0.000E+00 0.000E+00    1       14        0        0
     13  9.053E+03 3.703E+05 0.000E+00 0.000E+00 0.000E+00    1        0       12        0
     14  2.476E+03 0.000E+00 0.000E+00 0.000E+00 0.000E+00    1       15        0        0
     15  5.144E+03 0.000E+00 0.000E+00 0.000E+00 0.000E+00    1       17        0        0
     16  6.863E+03 0.000E+00 0.000E+00 0.000E+00 0.000E+00    1        0       14        0
     17  7.022E+03 0.000E+00 0.000E+00 0.000E+00 0.000E+00    1       18        0        0
     18  3.144E+03 0.000E+00 0.000E+00 0.000E+00 0.000E+00    1       22        0        0
     19  3.580E+03 1.037E+06 0.000E+00 0.000E+00 0.000E+00    1       21       18        0
     20  2.413E+03 0.000E+00 0.000E+00 0.000E+00 0.000E+00    1        0       19        0
     21  2.816E+03 0.000E+00 0.000E+00 0.000E+00 0.000E+00    1       -1        0        0
     22  1.618E+04 0.000E+00 0.000E+00 0.000E+00 0.000E+00    1       23        0        0
     23  1.073E+04 0.000E+00 0.000E+00 0.000E+00 0.000E+00    1        0        0        0
     24  3.924E+03 0.000E+00 0.000E+00 0.000E+00 0.000E+00    1        0       22        0


         STREAMBED PROPERTIES AND STREAM DIMENSIONS

 SEGMENT     BED HYD. COND.      BED THICKNESS     ELEV.-TOP OF BED     WIDTH OF STREAM     DEPTH OF STREAM    STREAM ROUGHNESS
    No.     UPPER     LOWER     UPPER     LOWER     UPPER     LOWER     UPPER     LOWER     UPPER     LOWER   CHANNEL      BANK

     1  5.000E-01 5.000E-01 1.000E+00 1.000E+00 4.716E+03 4.634E+03 1.300E+01 1.300E+01                     3.000E-02
     2  5.000E-01 5.000E-01 1.000E+00 1.000E+00 4.629E+03 4.597E+03 1.300E+01 1.300E+01                     3.000E-02
     3  0.000E+00 0.000E+00 1.000E+00 1.000E+00 4.589E+03 4.564E+03 1.300E+01 1.300E+01                     3.000E-02
     4  1.000E+00 1.000E+00 1.000E+00 1.000E+00 4.591E+03 4.579E+03 9.000E+00 9.000E+00                     3.000E-02
     5  5.000E-01 5.000E-01 1.000E+00 1.000E+00 4.575E+03 4.566E+03 7.000E+00 7.000E+00                     3.000E-02
     6  0.000E+00 0.000E+00 1.000E+00 1.000E+00 4.581E+03 4.547E+03 1.600E+01 1.600E+01                     3.000E-02
     7  1.000E+00 1.000E+00 1.000E+00 1.000E+00 4.545E+03 4.526E+03 1.000E+01 1.000E+01                     3.000E-02
     8  1.000E+00 1.000E+00 1.000E+00 1.000E+00 4.523E+03 4.506E+03 8.000E+00 8.000E+00                     3.000E-02
     9  0.000E+00 0.000E+00 1.000E+00 1.000E+00 4.527E+03 4.510E+03 1.000E+01 1.000E+01                     3.000E-02
    10  1.500E-01 1.500E-01 1.000E+00 1.000E+00 4.634E+03 4.594E+03 1.200E+01 1.200E+01                     3.000E-02
    11  0.000E+00 0.000E+00 1.000E+00 1.000E+00 4.588E+03 4.578E+03 1.000E+01 1.000E+01                     3.000E-02
    12  5.000E-01 5.000E-01 1.000E+00 1.000E+00 4.590E+03 4.526E+03 1.000E+01 1.000E+01                     3.000E-02
    13  0.000E+00 0.000E+00 1.000E+00 1.000E+00 4.529E+03 4.500E+03 1.200E+01 1.200E+01                     3.000E-02
    14  1.000E+00 1.000E+00 1.000E+00 1.000E+00 4.521E+03 4.519E+03 1.000E+01 1.000E+01                     3.000E-02
    15  1.000E+00 1.000E+00 1.000E+00 1.000E+00 4.517E+03 4.505E+03 7.000E+00 7.000E+00                     3.000E-02
    16  0.000E+00 0.000E+00 1.000E+00 1.000E+00 4.516E+03 4.490E+03 1.000E+01 1.000E+01                     3.000E-02
    17  1.000E+00 1.000E+00 1.000E+00 1.000E+00 4.499E+03 4.484E+03 8.000E+00 8.000E+00                     3.000E-02
    18  1.000E+00 1.000E+00 1.000E+00 1.000E+00 4.481E+03 4.477E+03 8.000E+00 8.000E+00                     3.000E-02
    19  0.000E+00 0.000E+00 1.000E+00 1.000E+00 4.480E+03 4.478E+03 1.000E+01 1.000E+01                     3.000E-02
    20  0.000E+00 0.000E+00 1.000E+00 1.000E+00 4.479E+03 4.474E+03 4.000E+00 4.000E+00                     3.000E-02
    21  0.000E+00 0.000E+00 1.000E+00 1.000E+00 4.478E+03 4.475E+03 1.000E+01 1.000E+01                     3.000E-02
    22  5.000E-01 5.000E-01 1.000E+00 1.000E+00 4.476E+03 4.459E+03 1.600E+01 1.600E+01                     3.000E-02
    23  1.000E+00 1.000E+00 1.000E+00 1.000E+00 4.459E+03 4.450E+03 1.800E+01 1.800E+01                     3.000E-02
    24  0.000E+00 0.000E+00 1.000E+00 1.000E+00 4.461E+03 4.453E+03 1.000E+01 1.000E+01                     3.000E-02



 OUTER ITERATION NUMBER:     1
 BACKTRACK COUNT=  0 ACCEPTED RESIDUAL=  0.6338865E+11INCOMING RESIDUAL=  0.6338865E+11IBT=  0
0
     4 ITERATIONS FOR TIME STEP        1 IN STRESS PERIOD       1

 MAXIMUM HEAD CHANGE FOR EACH ITERATION:

    HEAD CHANGE   HEAD CHANGE   HEAD CHANGE   HEAD CHANGE   HEAD CHANGE
  LAYER,ROW,COL LAYER,ROW,COL LAYER,ROW,COL LAYER,ROW,COL LAYER,ROW,COL
 ----------------------------------------------------------------------
     -5.936       -0.7366       -0.8956E-01   -0.8644E-02
  (  1,  2, 46) (  1, 11, 14) (  1, 11, 14) (  1, 11, 14)

0OC -- OUTPUT CONTROL PACKAGE INPUT READ FROM UNIT 22

 HEAD/DRAWDOWN PRINTOUT FLAG = 1     TOTAL BUDGET PRINTOUT FLAG = 1
 CELL-BY-CELL FLOW TERM FLAG = 1

 OUTPUT FLAGS FOR ALL LAYERS ARE THE SAME:
   HEAD    DRAWDOWN  HEAD  DRAWDOWN
 PRINTOUT  PRINTOUT  SAVE    SAVE
 ----------------------------------
     0         0       1       1
 UBUDSV SAVING "         STORAGE" ON UNIT    50 AT TIME STEP     1, STRESS PERIOD     1
 UBUDSV SAVING "   CONSTANT HEAD" ON UNIT    50 AT TIME STEP     1, STRESS PERIOD     1
 UBUDSV SAVING "FLOW RIGHT FACE " ON UNIT    50 AT TIME STEP     1, STRESS PERIOD     1
 UBUDSV SAVING "FLOW FRONT FACE " ON UNIT    50 AT TIME STEP     1, STRESS PERIOD     1
 UBUDSV SAVING "           WELLS" ON UNIT    54 AT TIME STEP     1, STRESS PERIOD     1
 UBUDSV SAVING "        RECHARGE" ON UNIT    51 AT TIME STEP     1, STRESS PERIOD     1
 UBUDSV SAVING "              ET" ON UNIT    50 AT TIME STEP     1, STRESS PERIOD     1
 UBUDSV SAVING "  STREAM LEAKAGE" ON UNIT    50 AT TIME STEP     1, STRESS PERIOD     1

 HEAD WILL BE SAVED ON UNIT  30 AT END OF TIME STEP         1, STRESS PERIOD       1

 DRAWDOWN WILL BE SAVED ON UNIT  31 AT END OF TIME STEP         1, STRESS PERIOD       1
1
  VOLUMETRIC BUDGET FOR ENTIRE MODEL AT END OF TIME STEP       1 IN STRESS PERIOD       1
  -----------------------------------------------------------------------------

     CUMULATIVE VOLUMES      L**3       RATES FOR THIS TIME STEP      L**3/T
     ------------------                 ------------------------

           IN:                                      IN:
           ---                                      ---
             STORAGE =    17892372.0000               STORAGE =      596412.3750
       CONSTANT HEAD =           0.0000         CONSTANT HEAD =           0.0000
               WELLS =           0.0000                 WELLS =           0.0000
              DRAINS =           0.0000                DRAINS =           0.0000
            RECHARGE =    22685070.0000              RECHARGE =      756169.0000
                  ET =           0.0000                    ET =           0.0000
       RIVER LEAKAGE =     3658661.5000         RIVER LEAKAGE =      121955.3828
     HEAD DEP BOUNDS =           0.0000       HEAD DEP BOUNDS =           0.0000
      STREAM LEAKAGE =    21751404.0000        STREAM LEAKAGE =      725046.8125

            TOTAL IN =    65987507.5000              TOTAL IN =     2199583.5703

          OUT:                                     OUT:
          ----                                     ----
             STORAGE =    13147419.0000               STORAGE =      438247.2812
       CONSTANT HEAD =           0.0000         CONSTANT HEAD =           0.0000
               WELLS =           0.0000                 WELLS =           0.0000
              DRAINS =           0.0000                DRAINS =           0.0000
            RECHARGE =     8313000.0000              RECHARGE =      277100.0000
                  ET =           0.0000                    ET =           0.0000
       RIVER LEAKAGE =    13409199.0000         RIVER LEAKAGE =      446973.3125
     HEAD DEP BOUNDS =     1508728.7500       HEAD DEP BOUNDS =       50290.9570
      STREAM LEAKAGE =    29624128.0000        STREAM LEAKAGE =      987470.9375

           TOTAL OUT =    66002474.7500             TOTAL OUT =     2200082.4883

            IN - OUT =      -14967.2500              IN - OUT =        -498.9180

 PERCENT DISCREPANCY =          -0.02     PERCENT DISCREPANCY =          -0.02






          TIME SUMMARY AT END OF TIME STEP         1 IN STRESS PERIOD         1
                    SECONDS       MINUTES        HOURS         DAYS          YEARS
                    -------------------------------------------------------------------
   TIME STEP LENGTH  2592000.      43200.00      720.0000      30.00000     8.2135521E-02
 STRESS PERIOD TIME  2592000.      43200.00      720.0000      30.00000     8.2135521E-02
         TOTAL TIME  2592000.      43200.00      720.0000      30.00000     8.2135521E-02
1
 OUTER ITERATION NUMBER:     1
 BACKTRACK COUNT=  0 ACCEPTED RESIDUAL=  0.2623747E+10INCOMING RESIDUAL=  0.2623747E+10IBT=  0
     4 ITERATIONS FOR TIME STEP        2 IN STRESS PERIOD       1

 MAXIMUM HEAD CHANGE FOR EACH ITERATION:

    HEAD CHANGE   HEAD CHANGE   HEAD CHANGE   HEAD CHANGE   HEAD CHANGE
  LAYER,ROW,COL LAYER,ROW,COL LAYER,ROW,COL LAYER,ROW,COL LAYER,ROW,COL
 ----------------------------------------------------------------------
     -1.974       -0.2276       -0.2509E-01    0.3397E-02
  (  1,  2, 45) (  1, 11, 14) (  1, 11, 14) (  1, 11, 12)

0OC -- OUTPUT CONTROL PACKAGE INPUT READ FROM UNIT 22

 HEAD/DRAWDOWN PRINTOUT FLAG = 1     TOTAL BUDGET PRINTOUT FLAG = 1
 CELL-BY-CELL FLOW TERM FLAG = 1

 OUTPUT FLAGS FOR ALL LAYERS ARE THE SAME:
   HEAD    DRAWDOWN  HEAD  DRAWDOWN
 PRINTOUT  PRINTOUT  SAVE    SAVE
 ----------------------------------
     0         0       1       1
 UBUDSV SAVING "         STORAGE" ON UNIT    50 AT TIME STEP     2, STRESS PERIOD     1
 UBUDSV SAVING "   CONSTANT HEAD" ON UNIT    50 AT TIME STEP     2, STRESS PERIOD     1
 UBUDSV SAVING "FLOW RIGHT FACE " ON UNIT    50 AT TIME STEP     2, STRESS PERIOD     1
 UBUDSV SAVING "FLOW FRONT FACE " ON UNIT    50 AT TIME STEP     2, STRESS PERIOD     1
 UBUDSV SAVING "           WELLS" ON UNIT    54 AT TIME STEP     2, STRESS PERIOD     1
 UBUDSV SAVING "        RECHARGE" ON UNIT    51 AT TIME STEP     2, STRESS PERIOD     1
 UBUDSV SAVING "              ET" ON UNIT    50 AT TIME STEP     2, STRESS PERIOD     1
 UBUDSV SAVING "  STREAM LEAKAGE" ON UNIT    50 AT TIME STEP     2, STRESS PERIOD     1

 HEAD WILL BE SAVED ON UNIT  30 AT END OF TIME STEP         2, STRESS PERIOD       1

 DRAWDOWN WILL BE SAVED ON UNIT  31 AT END OF TIME STEP         2, STRESS PERIOD       1
1
  VOLUMETRIC BUDGET FOR ENTIRE MODEL AT END OF TIME STEP       2 IN STRESS PERIOD       1
  -----------------------------------------------------------------------------

     CUMULATIVE VOLUMES      L**3       RATES FOR THIS TIME STEP      L**3/T
     ------------------                 ------------------------

           IN:                                      IN:
           ---                                      ---
             STORAGE =    30791896.0000               STORAGE =      429984.1562
       CONSTANT HEAD =           0.0000         CONSTANT HEAD =           0.0000
               WELLS =           0.0000                 WELLS =           0.0000
              DRAINS =           0.0000                DRAINS =           0.0000
            RECHARGE =    45370140.0000              RECHARGE =      756169.0000
                  ET =           0.0000                    ET =           0.0000
       RIVER LEAKAGE =     7163357.0000         RIVER LEAKAGE =      116823.1797
     HEAD DEP BOUNDS =           0.0000       HEAD DEP BOUNDS =           0.0000
      STREAM LEAKAGE =    43464940.0000        STREAM LEAKAGE =      723784.5625

            TOTAL IN =   126790333.0000              TOTAL IN =     2026760.8984

          OUT:                                     OUT:
          ----                                     ----
             STORAGE =    20389092.0000               STORAGE =      241389.0781
       CONSTANT HEAD =           0.0000         CONSTANT HEAD =           0.0000
               WELLS =           0.0000                 WELLS =           0.0000
              DRAINS =           0.0000                DRAINS =           0.0000
            RECHARGE =    16626000.0000              RECHARGE =      277100.0000
                  ET =           0.0000                    ET =           0.0000
       RIVER LEAKAGE =    27491632.0000         RIVER LEAKAGE =      469414.4375
     HEAD DEP BOUNDS =     3016127.2500       HEAD DEP BOUNDS =       50246.6133
      STREAM LEAKAGE =    59279448.0000        STREAM LEAKAGE =      988510.6250

           TOTAL OUT =   126802299.2500             TOTAL OUT =     2026660.7539

            IN - OUT =      -11966.2500              IN - OUT =         100.1445

 PERCENT DISCREPANCY =          -0.01     PERCENT DISCREPANCY =           0.00






          TIME SUMMARY AT END OF TIME STEP         2 IN STRESS PERIOD         1
                    SECONDS       MINUTES        HOURS         DAYS          YEARS
                    -------------------------------------------------------------------
   TIME STEP LENGTH  2592000.      43200.00      720.0000      30.00000     8.2135521E-02
 STRESS PERIOD TIME  5184000.      86400.00      1440.000      60.00000     0.1642710    
         TOTAL TIME  5184000.      86400.00      1440.000      60.00000     0.1642710    
1
 OUTER ITERATION NUMBER:     1
 BACKTRACK COUNT=  0 ACCEPTED RESIDUAL=  0.7630276E+09INCOMING RESIDUAL=  0.7630276E+09IBT=  0
     3 ITERATIONS FOR TIME STEP        3 IN STRESS PERIOD       1

 MAXIMUM HEAD CHANGE FOR EACH ITERATION:

    HEAD CHANGE   HEAD CHANGE   HEAD CHANGE   HEAD CHANGE   HEAD CHANGE
  LAYER,ROW,COL LAYER,ROW,COL LAYER,ROW,COL LAYER,ROW,COL LAYER,ROW,COL
 ----------------------------------------------------------------------
     0.8977       -0.7184E-01   -0.7768E-02
  (  1, 39, 15) (  1, 11, 14) (  1, 11, 14)

0OC -- OUTPUT CONTROL PACKAGE INPUT READ FROM UNIT 22

 HEAD/DRAWDOWN PRINTOUT FLAG = 1     TOTAL BUDGET PRINTOUT FLAG = 1
 CELL-BY-CELL FLOW TERM FLAG = 1

 OUTPUT FLAGS FOR ALL LAYERS ARE THE SAME:
   HEAD    DRAWDOWN  HEAD  DRAWDOWN
 PRINTOUT  PRINTOUT  SAVE    SAVE
 ----------------------------------
     0         0       1       1
 UBUDSV SAVING "         STORAGE" ON UNIT    50 AT TIME STEP     3, STRESS PERIOD     1
 UBUDSV SAVING "   CONSTANT HEAD" ON UNIT    50 AT TIME STEP     3, STRESS PERIOD     1
 UBUDSV SAVING "FLOW RIGHT FACE " ON UNIT    50 AT TIME STEP     3, STRESS PERIOD     1
 UBUDSV SAVING "FLOW FRONT FACE " ON UNIT    50 AT TIME STEP     3, STRESS PERIOD     1
 UBUDSV SAVING "           WELLS" ON UNIT    54 AT TIME STEP     3, STRESS PERIOD     1
 UBUDSV SAVING "        RECHARGE" ON UNIT    51 AT TIME STEP     3, STRESS PERIOD     1
 UBUDSV SAVING "              ET" ON UNIT    50 AT TIME STEP     3, STRESS PERIOD     1
 UBUDSV SAVING "  STREAM LEAKAGE" ON UNIT    50 AT TIME STEP     3, STRESS PERIOD     1

 HEAD WILL BE SAVED ON UNIT  30 AT END OF TIME STEP         3, STRESS PERIOD       1

 DRAWDOWN WILL BE SAVED ON UNIT  31 AT END OF TIME STEP         3, STRESS PERIOD       1
1
  VOLUMETRIC BUDGET FOR ENTIRE MODEL AT END OF TIME STEP       3 IN STRESS PERIOD       1
  -----------------------------------------------------------------------------

     CUMULATIVE VOLUMES      L**3       RATES FOR THIS TIME STEP      L**3/T
     ------------------                 ------------------------

           IN:                                      IN:
           ---                                      ---
             STORAGE =    41277040.0000               STORAGE =      349504.8750
       CONSTANT HEAD =           0.0000         CONSTANT HEAD =           0.0000
               WELLS =           0.0000                 WELLS =           0.0000
              DRAINS =           0.0000                DRAINS =           0.0000
            RECHARGE =    68055208.0000              RECHARGE =      756169.0000
                  ET =           0.0000                    ET =           0.0000
       RIVER LEAKAGE =    10739952.0000         RIVER LEAKAGE =      119219.8438
     HEAD DEP BOUNDS =           0.0000       HEAD DEP BOUNDS =           0.0000
      STREAM LEAKAGE =    65191276.0000        STREAM LEAKAGE =      724211.1875

            TOTAL IN =   185263476.0000              TOTAL IN =     1949104.9062

          OUT:                                     OUT:
          ----                                     ----
             STORAGE =    25224368.0000               STORAGE =      161175.8594
       CONSTANT HEAD =           0.0000         CONSTANT HEAD =           0.0000
               WELLS =           0.0000                 WELLS =           0.0000
              DRAINS =           0.0000                DRAINS =           0.0000
            RECHARGE =    24939000.0000              RECHARGE =      277100.0000
                  ET =           0.0000                    ET =           0.0000
       RIVER LEAKAGE =    41776592.0000         RIVER LEAKAGE =      476165.4062
     HEAD DEP BOUNDS =     4522380.5000       HEAD DEP BOUNDS =       50208.4414
      STREAM LEAKAGE =    88812960.0000        STREAM LEAKAGE =      984450.4375

           TOTAL OUT =   185275300.5000             TOTAL OUT =     1949100.1445

            IN - OUT =      -11824.5000              IN - OUT =           4.7617

 PERCENT DISCREPANCY =          -0.01     PERCENT DISCREPANCY =           0.00






          TIME SUMMARY AT END OF TIME STEP         3 IN STRESS PERIOD         1
                    SECONDS       MINUTES        HOURS         DAYS          YEARS
                    -------------------------------------------------------------------
   TIME STEP LENGTH  2592000.      43200.00      720.0000      30.00000     8.2135521E-02
 STRESS PERIOD TIME  7776000.      129600.0      2160.000      90.00000     0.2464066    
         TOTAL TIME  7776000.      129600.0      2160.000      90.00000     0.2464066    
1
 OUTER ITERATION NUMBER:     1
 BACKTRACK COUNT=  0 ACCEPTED RESIDUAL=  0.3513227E+09INCOMING RESIDUAL=  0.3513227E+09IBT=  0
     3 ITERATIONS FOR TIME STEP        4 IN STRESS PERIOD       1

 MAXIMUM HEAD CHANGE FOR EACH ITERATION:

    HEAD CHANGE   HEAD CHANGE   HEAD CHANGE   HEAD CHANGE   HEAD CHANGE
  LAYER,ROW,COL LAYER,ROW,COL LAYER,ROW,COL LAYER,ROW,COL LAYER,ROW,COL
 ----------------------------------------------------------------------
    -0.5753        0.5917E-01   -0.2813E-02
  (  1, 37, 25) (  1, 38, 14) (  1, 11, 14)

0OC -- OUTPUT CONTROL PACKAGE INPUT READ FROM UNIT 22

 HEAD/DRAWDOWN PRINTOUT FLAG = 1     TOTAL BUDGET PRINTOUT FLAG = 1
 CELL-BY-CELL FLOW TERM FLAG = 1

 OUTPUT FLAGS FOR ALL LAYERS ARE THE SAME:
   HEAD    DRAWDOWN  HEAD  DRAWDOWN
 PRINTOUT  PRINTOUT  SAVE    SAVE
 ----------------------------------
     0         0       1       1
 UBUDSV SAVING "         STORAGE" ON UNIT    50 AT TIME STEP     4, STRESS PERIOD     1
 UBUDSV SAVING "   CONSTANT HEAD" ON UNIT    50 AT TIME STEP     4, STRESS PERIOD     1
 UBUDSV SAVING "FLOW RIGHT FACE " ON UNIT    50 AT TIME STEP     4, STRESS PERIOD     1
 UBUDSV SAVING "FLOW FRONT FACE " ON UNIT    50 AT TIME STEP     4, STRESS PERIOD     1
 UBUDSV SAVING "           WELLS" ON UNIT    54 AT TIME STEP     4, STRESS PERIOD     1
 UBUDSV SAVING "        RECHARGE" ON UNIT    51 AT TIME STEP     4, STRESS PERIOD     1
 UBUDSV SAVING "              ET" ON UNIT    50 AT TIME STEP     4, STRESS PERIOD     1
 UBUDSV SAVING "  STREAM LEAKAGE" ON UNIT    50 AT TIME STEP     4, STRESS PERIOD     1

 HEAD WILL BE SAVED ON UNIT  30 AT END OF TIME STEP         4, STRESS PERIOD       1

 DRAWDOWN WILL BE SAVED ON UNIT  31 AT END OF TIME STEP         4, STRESS PERIOD       1
1
  VOLUMETRIC BUDGET FOR ENTIRE MODEL AT END OF TIME STEP       4 IN STRESS PERIOD       1
  -----------------------------------------------------------------------------

     CUMULATIVE VOLUMES      L**3       RATES FOR THIS TIME STEP      L**3/T
     ------------------                 ------------------------

           IN:                                      IN:
           ---                                      ---
             STORAGE =    50274060.0000               STORAGE =      299900.6875
       CONSTANT HEAD =           0.0000         CONSTANT HEAD =           0.0000
               WELLS =           0.0000                 WELLS =           0.0000
              DRAINS =           0.0000                DRAINS =           0.0000
            RECHARGE =    90740280.0000              RECHARGE =      756169.0000
                  ET =           0.0000                    ET =           0.0000
       RIVER LEAKAGE =    14357765.0000         RIVER LEAKAGE =      120593.7812
     HEAD DEP BOUNDS =           0.0000       HEAD DEP BOUNDS =           0.0000
      STREAM LEAKAGE =    86954760.0000        STREAM LEAKAGE =      725449.3750

            TOTAL IN =   242326865.0000              TOTAL IN =     1902112.8438

          OUT:                                     OUT:
          ----                                     ----
             STORAGE =    28680824.0000               STORAGE =      115215.2109
       CONSTANT HEAD =           0.0000         CONSTANT HEAD =           0.0000
               WELLS =           0.0000                 WELLS =           0.0000
              DRAINS =           0.0000                DRAINS =           0.0000
            RECHARGE =    33252000.0000              RECHARGE =      277100.0000
                  ET =           0.0000                    ET =           0.0000
       RIVER LEAKAGE =    56124912.0000         RIVER LEAKAGE =      478277.3438
     HEAD DEP BOUNDS =     6027587.0000       HEAD DEP BOUNDS =       50173.5508
      STREAM LEAKAGE =   118252216.0000        STREAM LEAKAGE =      981308.5625

           TOTAL OUT =   242337539.0000             TOTAL OUT =     1902074.6680

            IN - OUT =      -10674.0000              IN - OUT =          38.1758

 PERCENT DISCREPANCY =           0.00     PERCENT DISCREPANCY =           0.00






          TIME SUMMARY AT END OF TIME STEP         4 IN STRESS PERIOD         1
                    SECONDS       MINUTES        HOURS         DAYS          YEARS
                    -------------------------------------------------------------------
   TIME STEP LENGTH  2592000.      43200.00      720.0000      30.00000     8.2135521E-02
 STRESS PERIOD TIME 1.0368000E+07  172800.0      2880.000      120.0000     0.3285421    
         TOTAL TIME 1.0368000E+07  172800.0      2880.000      120.0000     0.3285421    
1
 OUTER ITERATION NUMBER:     1
 BACKTRACK COUNT=  0 ACCEPTED RESIDUAL=  0.1961085E+09INCOMING RESIDUAL=  0.1961085E+09IBT=  0
     4 ITERATIONS FOR TIME STEP        5 IN STRESS PERIOD       1

 MAXIMUM HEAD CHANGE FOR EACH ITERATION:

    HEAD CHANGE   HEAD CHANGE   HEAD CHANGE   HEAD CHANGE   HEAD CHANGE
  LAYER,ROW,COL LAYER,ROW,COL LAYER,ROW,COL LAYER,ROW,COL LAYER,ROW,COL
 ----------------------------------------------------------------------
    -0.4503        0.2565E-01    0.1473E-01    0.8867E-03
  (  1, 37, 25) (  1, 41, 13) (  1, 38, 14) (  1, 38, 14)

0OC -- OUTPUT CONTROL PACKAGE INPUT READ FROM UNIT 22

 HEAD/DRAWDOWN PRINTOUT FLAG = 1     TOTAL BUDGET PRINTOUT FLAG = 1
 CELL-BY-CELL FLOW TERM FLAG = 1

 OUTPUT FLAGS FOR ALL LAYERS ARE THE SAME:
   HEAD    DRAWDOWN  HEAD  DRAWDOWN
 PRINTOUT  PRINTOUT  SAVE    SAVE
 ----------------------------------
     0         0       1       1
 UBUDSV SAVING "         STORAGE" ON UNIT    50 AT TIME STEP     5, STRESS PERIOD     1
 UBUDSV SAVING "   CONSTANT HEAD" ON UNIT    50 AT TIME STEP     5, STRESS PERIOD     1
 UBUDSV SAVING "FLOW RIGHT FACE " ON UNIT    50 AT TIME STEP     5, STRESS PERIOD     1
 UBUDSV SAVING "FLOW FRONT FACE " ON UNIT    50 AT TIME STEP     5, STRESS PERIOD     1
 UBUDSV SAVING "           WELLS" ON UNIT    54 AT TIME STEP     5, STRESS PERIOD     1
 UBUDSV SAVING "        RECHARGE" ON UNIT    51 AT TIME STEP     5, STRESS PERIOD     1
 UBUDSV SAVING "              ET" ON UNIT    50 AT TIME STEP     5, STRESS PERIOD     1
 UBUDSV SAVING "  STREAM LEAKAGE" ON UNIT    50 AT TIME STEP     5, STRESS PERIOD     1

 HEAD WILL BE SAVED ON UNIT  30 AT END OF TIME STEP         5, STRESS PERIOD       1

 DRAWDOWN WILL BE SAVED ON UNIT  31 AT END OF TIME STEP         5, STRESS PERIOD       1
1
  VOLUMETRIC BUDGET FOR ENTIRE MODEL AT END OF TIME STEP       5 IN STRESS PERIOD       1
  -----------------------------------------------------------------------------

     CUMULATIVE VOLUMES      L**3       RATES FOR THIS TIME STEP      L**3/T
     ------------------                 ------------------------

           IN:                                      IN:
           ---                                      ---
             STORAGE =    58284504.0000               STORAGE =      267014.8438
       CONSTANT HEAD =           0.0000         CONSTANT HEAD =           0.0000
               WELLS =           0.0000                 WELLS =           0.0000
              DRAINS =           0.0000                DRAINS =           0.0000
            RECHARGE =   113425352.0000              RECHARGE =      756169.0000
                  ET =           0.0000                    ET =           0.0000
       RIVER LEAKAGE =    18000110.0000         RIVER LEAKAGE =      121411.4688
     HEAD DEP BOUNDS =           0.0000       HEAD DEP BOUNDS =           0.0000
      STREAM LEAKAGE =   108750624.0000        STREAM LEAKAGE =      726528.7500

            TOTAL IN =   298460590.0000              TOTAL IN =     1871124.0625

          OUT:                                     OUT:
          ----                                     ----
             STORAGE =    31283460.0000               STORAGE =       86754.5547
       CONSTANT HEAD =           0.0000         CONSTANT HEAD =           0.0000
               WELLS =           0.0000                 WELLS =           0.0000
              DRAINS =           0.0000                DRAINS =           0.0000
            RECHARGE =    41565000.0000              RECHARGE =      277100.0000
                  ET =           0.0000                    ET =           0.0000
       RIVER LEAKAGE =    70498792.0000         RIVER LEAKAGE =      479129.1875
     HEAD DEP BOUNDS =     7531814.0000       HEAD DEP BOUNDS =       50140.8984
      STREAM LEAKAGE =   147591520.0000        STREAM LEAKAGE =      977976.6250

           TOTAL OUT =   298470586.0000             TOTAL OUT =     1871101.2656

            IN - OUT =       -9996.0000              IN - OUT =          22.7969

 PERCENT DISCREPANCY =           0.00     PERCENT DISCREPANCY =           0.00






          TIME SUMMARY AT END OF TIME STEP         5 IN STRESS PERIOD         1
                    SECONDS       MINUTES        HOURS         DAYS          YEARS
                    -------------------------------------------------------------------
   TIME STEP LENGTH  2592000.      43200.00      720.0000      30.00000     8.2135521E-02
 STRESS PERIOD TIME 1.2960000E+07  216000.0      3600.000      150.0000     0.4106776    
         TOTAL TIME 1.2960000E+07  216000.0      3600.000      150.0000     0.4106776    
1
 OUTER ITERATION NUMBER:     1
 BACKTRACK COUNT=  0 ACCEPTED RESIDUAL=  0.1251279E+09INCOMING RESIDUAL=  0.1251279E+09IBT=  0
     3 ITERATIONS FOR TIME STEP        6 IN STRESS PERIOD       1

 MAXIMUM HEAD CHANGE FOR EACH ITERATION:

    HEAD CHANGE   HEAD CHANGE   HEAD CHANGE   HEAD CHANGE   HEAD CHANGE
  LAYER,ROW,COL LAYER,ROW,COL LAYER,ROW,COL LAYER,ROW,COL LAYER,ROW,COL
 ----------------------------------------------------------------------
    -0.3591        0.3623E-01    0.1762E-02
  (  1, 37, 25) (  1, 38, 14) (  1, 38, 14)

0OC -- OUTPUT CONTROL PACKAGE INPUT READ FROM UNIT 22

 HEAD/DRAWDOWN PRINTOUT FLAG = 1     TOTAL BUDGET PRINTOUT FLAG = 1
 CELL-BY-CELL FLOW TERM FLAG = 1

 OUTPUT FLAGS FOR ALL LAYERS ARE THE SAME:
   HEAD    DRAWDOWN  HEAD  DRAWDOWN
 PRINTOUT  PRINTOUT  SAVE    SAVE
 ----------------------------------
     0         0       1       1
 UBUDSV SAVING "         STORAGE" ON UNIT    50 AT TIME STEP     6, STRESS PERIOD     1
 UBUDSV SAVING "   CONSTANT HEAD" ON UNIT    50 AT TIME STEP     6, STRESS PERIOD     1
 UBUDSV SAVING "FLOW RIGHT FACE " ON UNIT    50 AT TIME STEP     6, STRESS PERIOD     1
 UBUDSV SAVING "FLOW FRONT FACE " ON UNIT    50 AT TIME STEP     6, STRESS PERIOD     1
 UBUDSV SAVING "           WELLS" ON UNIT    54 AT TIME STEP     6, STRESS PERIOD     1
 UBUDSV SAVING "        RECHARGE" ON UNIT    51 AT TIME STEP     6, STRESS PERIOD     1
 UBUDSV SAVING "              ET" ON UNIT    50 AT TIME STEP     6, STRESS PERIOD     1
 UBUDSV SAVING "  STREAM LEAKAGE" ON UNIT    50 AT TIME STEP     6, STRESS PERIOD     1

 HEAD WILL BE SAVED ON UNIT  30 AT END OF TIME STEP         6, STRESS PERIOD       1

 DRAWDOWN WILL BE SAVED ON UNIT  31 AT END OF TIME STEP         6, STRESS PERIOD       1
1
  VOLUMETRIC BUDGET FOR ENTIRE MODEL AT END OF TIME STEP       6 IN STRESS PERIOD       1
  -----------------------------------------------------------------------------

     CUMULATIVE VOLUMES      L**3       RATES FOR THIS TIME STEP      L**3/T
     ------------------                 ------------------------

           IN:                                      IN:
           ---                                      ---
             STORAGE =    65610452.0000               STORAGE =      244198.2031
       CONSTANT HEAD =           0.0000         CONSTANT HEAD =           0.0000
               WELLS =           0.0000                 WELLS =           0.0000
              DRAINS =           0.0000                DRAINS =           0.0000
            RECHARGE =   136110416.0000              RECHARGE =      756169.0000
                  ET =           0.0000                    ET =           0.0000
       RIVER LEAKAGE =    21657794.0000         RIVER LEAKAGE =      121922.7891
     HEAD DEP BOUNDS =           0.0000       HEAD DEP BOUNDS =           0.0000
      STREAM LEAKAGE =   130581928.0000        STREAM LEAKAGE =      727710.1875

            TOTAL IN =   353960590.0000              TOTAL IN =     1850000.1797

          OUT:                                     OUT:
          ----                                     ----
             STORAGE =    33327532.0000               STORAGE =       68135.7266
       CONSTANT HEAD =           0.0000         CONSTANT HEAD =           0.0000
               WELLS =           0.0000                 WELLS =           0.0000
              DRAINS =           0.0000                DRAINS =           0.0000
            RECHARGE =    49878000.0000              RECHARGE =      277100.0000
                  ET =           0.0000                    ET =           0.0000
       RIVER LEAKAGE =    84879920.0000         RIVER LEAKAGE =      479370.9062
     HEAD DEP BOUNDS =     9035086.0000       HEAD DEP BOUNDS =       50109.0508
      STREAM LEAKAGE =   176850624.0000        STREAM LEAKAGE =      975303.5625

           TOTAL OUT =   353971162.0000             TOTAL OUT =     1850019.2461

            IN - OUT =      -10572.0000              IN - OUT =         -19.0664

 PERCENT DISCREPANCY =           0.00     PERCENT DISCREPANCY =           0.00






          TIME SUMMARY AT END OF TIME STEP         6 IN STRESS PERIOD         1
                    SECONDS       MINUTES        HOURS         DAYS          YEARS
                    -------------------------------------------------------------------
   TIME STEP LENGTH  2592000.      43200.00      720.0000      30.00000     8.2135521E-02
 STRESS PERIOD TIME 1.5552000E+07  259200.0      4320.000      180.0000     0.4928131    
         TOTAL TIME 1.5552000E+07  259200.0      4320.000      180.0000     0.4928131    
1
 OUTER ITERATION NUMBER:     1
 BACKTRACK COUNT=  0 ACCEPTED RESIDUAL=  0.8838381E+08INCOMING RESIDUAL=  0.8838381E+08IBT=  0
     3 ITERATIONS FOR TIME STEP        7 IN STRESS PERIOD       1

 MAXIMUM HEAD CHANGE FOR EACH ITERATION:

    HEAD CHANGE   HEAD CHANGE   HEAD CHANGE   HEAD CHANGE   HEAD CHANGE
  LAYER,ROW,COL LAYER,ROW,COL LAYER,ROW,COL LAYER,ROW,COL LAYER,ROW,COL
 ----------------------------------------------------------------------
    -0.2911        0.1382E-01   -0.6824E-03
  (  1, 37, 25) (  1, 38, 14) (  1, 11, 13)

0OC -- OUTPUT CONTROL PACKAGE INPUT READ FROM UNIT 22

 HEAD/DRAWDOWN PRINTOUT FLAG = 1     TOTAL BUDGET PRINTOUT FLAG = 1
 CELL-BY-CELL FLOW TERM FLAG = 1

 OUTPUT FLAGS FOR ALL LAYERS ARE THE SAME:
   HEAD    DRAWDOWN  HEAD  DRAWDOWN
 PRINTOUT  PRINTOUT  SAVE    SAVE
 ----------------------------------
     0         0       1       1
 UBUDSV SAVING "         STORAGE" ON UNIT    50 AT TIME STEP     7, STRESS PERIOD     1
 UBUDSV SAVING "   CONSTANT HEAD" ON UNIT    50 AT TIME STEP     7, STRESS PERIOD     1
 UBUDSV SAVING "FLOW RIGHT FACE " ON UNIT    50 AT TIME STEP     7, STRESS PERIOD     1
 UBUDSV SAVING "FLOW FRONT FACE " ON UNIT    50 AT TIME STEP     7, STRESS PERIOD     1
 UBUDSV SAVING "           WELLS" ON UNIT    54 AT TIME STEP     7, STRESS PERIOD     1
 UBUDSV SAVING "        RECHARGE" ON UNIT    51 AT TIME STEP     7, STRESS PERIOD     1
 UBUDSV SAVING "              ET" ON UNIT    50 AT TIME STEP     7, STRESS PERIOD     1
 UBUDSV SAVING "  STREAM LEAKAGE" ON UNIT    50 AT TIME STEP     7, STRESS PERIOD     1

 HEAD WILL BE SAVED ON UNIT  30 AT END OF TIME STEP         7, STRESS PERIOD       1

 DRAWDOWN WILL BE SAVED ON UNIT  31 AT END OF TIME STEP         7, STRESS PERIOD       1
1
  VOLUMETRIC BUDGET FOR ENTIRE MODEL AT END OF TIME STEP       7 IN STRESS PERIOD       1
  -----------------------------------------------------------------------------

     CUMULATIVE VOLUMES      L**3       RATES FOR THIS TIME STEP      L**3/T
     ------------------                 ------------------------

           IN:                                      IN:
           ---                                      ---
             STORAGE =    72445536.0000               STORAGE =      227836.1406
       CONSTANT HEAD =           0.0000         CONSTANT HEAD =           0.0000
               WELLS =           0.0000                 WELLS =           0.0000
              DRAINS =           0.0000                DRAINS =           0.0000
            RECHARGE =   158795488.0000              RECHARGE =      756169.0000
                  ET =           0.0000                    ET =           0.0000
       RIVER LEAKAGE =    25325592.0000         RIVER LEAKAGE =      122259.9531
     HEAD DEP BOUNDS =           0.0000       HEAD DEP BOUNDS =           0.0000
      STREAM LEAKAGE =   152433392.0000        STREAM LEAKAGE =      728382.2500

            TOTAL IN =   409000008.0000              TOTAL IN =     1834647.3438

          OUT:                                     OUT:
          ----                                     ----
             STORAGE =    34997792.0000               STORAGE =       55675.3320
       CONSTANT HEAD =           0.0000         CONSTANT HEAD =           0.0000
               WELLS =           0.0000                 WELLS =           0.0000
              DRAINS =           0.0000                DRAINS =           0.0000
            RECHARGE =    58191000.0000              RECHARGE =      277100.0000
                  ET =           0.0000                    ET =           0.0000
       RIVER LEAKAGE =    99256656.0000         RIVER LEAKAGE =      479224.4688
     HEAD DEP BOUNDS =    10537448.0000       HEAD DEP BOUNDS =       50078.7461
      STREAM LEAKAGE =   206026464.0000        STREAM LEAKAGE =      972528.1250

           TOTAL OUT =   409009360.0000             TOTAL OUT =     1834606.6719

            IN - OUT =       -9352.0000              IN - OUT =          40.6719

 PERCENT DISCREPANCY =           0.00     PERCENT DISCREPANCY =           0.00






          TIME SUMMARY AT END OF TIME STEP         7 IN STRESS PERIOD         1
                    SECONDS       MINUTES        HOURS         DAYS          YEARS
                    -------------------------------------------------------------------
   TIME STEP LENGTH  2592000.      43200.00      720.0000      30.00000     8.2135521E-02
 STRESS PERIOD TIME 1.8144000E+07  302400.0      5040.000      210.0000     0.5749487    
         TOTAL TIME 1.8144000E+07  302400.0      5040.000      210.0000     0.5749487    
1

 BAS5 -- BASIC MODEL PACKAGE, VERSION 5, 1/1/95 INPUT READ FROM UNIT  1
1                                                   STRESS PERIOD NO.       2, LENGTH =   150.0000    
                                                    ----------------------------------------------

                                                    NUMBER OF TIME STEPS =       5

                                                     MULTIPLIER FOR DELT =     1.000

                                                  INITIAL TIME STEP SIZE =   30.00000    

 WEL1 -- WELL PACKAGE, VERSION 5, 9/1/93 INPUT READ FROM 12

                 59 WELLS

 LAYER   ROW   COL   STRESS RATE   WELL NO.
 ------------------------------------------
     1     21    30    -16600.          1
     1     22    32    -25800.          2
     1     23    20    -12700.          3
     1     23    24    -11700.          4
     1     23    26    -5850.0          5
     1     23    32    -12300.          6
     1     24    21    -6830.0          7
     1     24    26    -6830.0          8
     1     24    29    -23400.          9
     1     25    19    -23400.         10
     1     25    23    -80000.         11
     1     25    28    -25400.         12
     1     26    27    -10700.         13
     1     26    28    -17600.         14
     1     26    29    -16600.         15
     1     27    17    -10700.         16
     1     27    21    -39000.         17
     1     27    25    -23400.         18
     1     27    30    -20500.         19
     1     28    14    -17100.         20
     1     28    21    -9750.0         21
     1     29    20    -8780.0         22
     1     29    28    -21000.         23
     1     30    43    -13700.         24
     1     31     5    -33700.         25
     1     36    47    -19500.         26
     1     38    14   -0.13400E+06     27
     1     39     5    -25300.         28
     1     39    13    -38000.         29
     1     39    15   -0.24400E+06     30
     1     39    19    -23200.         31
     1     40     6    -31600.         32
     1     40    15    -3160.0         33
     1     40    16   -0.13100E+06     34
     1     40    18    -78000.         35
     1     40    31    -46800.         36
     1     41    14    -29500.         37
     1     41    15    -15800.         38
     1     41    19    -50600.         39
     1     41    35    -13700.         40
     1     41    36    -22400.         41
     1     41    53    -22200.         42
     1     42    12    -55700.         43
     1     42    13    -19000.         44
     1     42    27    -50000.         45
     1     42    52    -10700.         46
     1     43    18    -42200.         47
     1     43    53    -19500.         48
     1     44    25    -38000.         49
     1     44    53    -19500.         50
     1     44    54    -9750.0         51
     1     45    21    -72800.         52
     1     45    38    -24400.         53
     1     47    23    -43400.         54
     1     48    23    -19000.         55
     1     52    40    -71300.         56
     1     39    23    -48700.         57
     1     35    15    -97300.         58
     1     18    34     0.0000         59

 DRN1 -- DRAIN PACKAGE, VERSION 1, 9/1/87 INPUT READ FROM UNIT 13



     0 DRAINS

 RSF4 -- RECHARGE SEEPAGE FACE PACKAGE, 12/23/95  INPUT READ FROM UNIT 18



                           RECHARGE
 READING ON UNIT  18 WITH FORMAT: (10e12.4)           



     0 SEEPAGE-FACE BOUNDARY NODES

 EVT1 -- EVAPOTRANSPIRATION PACKAGE, VERSION 1, 9/1/87 INPUT READ FROM UNIT 20

 REUSING SURF FROM LAST STRESS PERIOD



            EVAPOTRANSPIRATION RATE
 READING ON UNIT  20 WITH FORMAT: (10e12.4)           



                   EXTINCTION DEPTH
 READING ON UNIT  20 WITH FORMAT: (10e12.4)           

 RIV1 -- RIVER PACKAGE, VERSION 1, 9/1/87 INPUT READ FROM UNIT 78



    66 RIVER REACHES

 LAYER   ROW   COL     STAGE   CONDUCTANCE   BOT. ELEV.  REACH NO.
 -----------------------------------------------------------------
        1     17     7    4480.      0.5000E+06   4440.           1
        1     17     8    4480.      0.5000E+06   4440.           2
        1     18     6    4480.      0.5000E+06   4440.           3
        1     18     7    4480.      0.5000E+06   4440.           4
        1     18     8    4480.      0.5000E+06   4440.           5
        1     18     9    4480.      0.5000E+06   4440.           6
        1     18    10    4480.      0.5000E+06   4440.           7
        1     19     6    4480.      0.5000E+06   4440.           8
        1     19     7    4480.      0.5000E+06   4440.           9
        1     19     8    4480.      0.5000E+06   4440.          10
        1     19     9    4480.      0.5000E+06   4440.          11
        1     19    10    4480.      0.5000E+06   4440.          12
        1     19    11    4480.      0.5000E+06   4440.          13
        1     19    12    4480.      0.5000E+06   4440.          14
        1     20     6    4480.      0.5000E+06   4440.          15
        1     20     7    4480.      0.5000E+06   4440.          16
        1     20     8    4480.      0.5000E+06   4440.          17
        1     20     9    4480.      0.5000E+06   4440.          18
        1     20    10    4480.      0.5000E+06   4440.          19
        1     20    11    4480.      0.5000E+06   4440.          20
        1     20    12    4480.      0.5000E+06   4440.          21
        1     21     6    4480.      0.5000E+06   4440.          22
        1     21     7    4480.      0.5000E+06   4440.          23
        1     21     8    4480.      0.5000E+06   4440.          24
        1     21     9    4480.      0.5000E+06   4440.          25
        1     21    10    4480.      0.5000E+06   4440.          26
        1     21    11    4480.      0.5000E+06   4440.          27
        1     21    12    4480.      0.5000E+06   4440.          28
        1     21    13    4480.      0.5000E+06   4440.          29
        1     22     6    4480.      0.5000E+06   4440.          30
        1     22     7    4480.      0.5000E+06   4440.          31
        1     22     8    4480.      0.5000E+06   4440.          32
        1     22     9    4480.      0.5000E+06   4440.          33
        1     22    10    4480.      0.5000E+06   4440.          34
        1     22    11    4480.      0.5000E+06   4440.          35
        1     22    12    4480.      0.5000E+06   4440.          36
        1     22    13    4480.      0.5000E+06   4440.          37
        1     22    14    4480.      0.5000E+06   4440.          38
        1     23     6    4480.      0.5000E+06   4440.          39
        1     23     7    4480.      0.5000E+06   4440.          40
        1     23     8    4480.      0.5000E+06   4440.          41
        1     23     9    4480.      0.5000E+06   4440.          42
        1     23    10    4480.      0.5000E+06   4440.          43
        1     23    11    4480.      0.5000E+06   4440.          44
        1     23    12    4480.      0.5000E+06   4440.          45
        1     23    13    4480.      0.5000E+06   4440.          46
        1     23    14    4480.      0.5000E+06   4440.          47
        1     23    15    4480.      0.5000E+06   4440.          48
        1     24     7    4480.      0.5000E+06   4440.          49
        1     24     8    4480.      0.5000E+06   4440.          50
        1     24     9    4480.      0.5000E+06   4440.          51
        1     24    10    4480.      0.5000E+06   4440.          52
        1     24    11    4480.      0.5000E+06   4440.          53
        1     24    12    4480.      0.5000E+06   4440.          54
        1     24    13    4480.      0.5000E+06   4440.          55
        1     24    14    4480.      0.5000E+06   4440.          56
        1     24    15    4480.      0.5000E+06   4440.          57
        1     25     8    4480.      0.5000E+06   4440.          58
        1     25     9    4480.      0.5000E+06   4440.          59
        1     25    10    4480.      0.5000E+06   4440.          60
        1     25    11    4480.      0.5000E+06   4440.          61
        1     25    12    4480.      0.5000E+06   4440.          62
        1     25    13    4480.      0.5000E+06   4440.          63
        1     25    14    4480.      0.5000E+06   4440.          64
        1     26    10    4480.      0.5000E+06   4440.          65
        1     26    11    4480.      0.5000E+06   4440.          66

 GHB1 -- GHB PACKAGE, VERSION 1, 9/1/87 INPUT READ FROM UNIT 37



    14 HEAD-DEPENDENT BOUNDARY NODES

 LAYER   ROW   COL   ELEVATION   CONDUCTANCE   BOUND NO.
 -------------------------------------------------------
     1     20     1    4430.         500.0           1
     1     20     2    4430.         500.0           2
     1     20     3    4430.         500.0           3
     1     21     1    4430.         500.0           4
     1     21     2    4430.         500.0           5
     1     21     3    4430.         500.0           6
     1     22     1    4430.         500.0           7
     1     23     1    4430.         500.0           8
     1     24     1    4430.         500.0           9
     1     25     1    4430.         500.0          10
     1     26     1    4430.         500.0          11
     1     27     1    4430.         500.0          12
     1     28     1    4430.         500.0          13
     1     29     1    4430.         500.0          14



 CLASSIFICATION & COUNT OF STREAM SEGMENTS BASED ON SOURCE OF INFLOW:

                HEADWATER     DIVERSION     RECEIVES TRIBUTARY FLOW
                ---------     ---------     -----------------------
                     4              7              13



                    INPUT DATA FOR EACH STREAM SEGMENT
 ---------------------------------------------------------------------------------------------

 SEGMENT    SEG.     INFLOW   OVERLAND   STREAM    STREAM   ICALC  OUTFLOW  DIVERSION PRIORITY
    NO.    LENGTH     RATE     RUNOFF      ET       PPT.    METH.  TO SEG.  FROM SEG.    NO.

      1  2.219E+04 2.498E+06 0.000E+00 0.000E+00 0.000E+00    1        2        0        0
      2  9.402E+03 0.000E+00 0.000E+00 0.000E+00 0.000E+00    1        4        0        0
      3  1.034E+04 1.721E+06 0.000E+00 0.000E+00 0.000E+00    1        0        1        0
      4  7.065E+03 0.000E+00 0.000E+00 0.000E+00 0.000E+00    1        5        0        0
      5  4.524E+03 0.000E+00 0.000E+00 0.000E+00 0.000E+00    1        7        0        0
      6  2.167E+04 0.000E+00 0.000E+00 0.000E+00 0.000E+00    1        0        4        0
      7  1.083E+04 0.000E+00 0.000E+00 0.000E+00 0.000E+00    1        8        0        0
      8  5.534E+03 0.000E+00 0.000E+00 0.000E+00 0.000E+00    1       17        0        0
      9  8.029E+03 6.427E+05 0.000E+00 0.000E+00 0.000E+00    1        0        7        0
     10  1.067E+04 2.808E+05 0.000E+00 0.000E+00 0.000E+00    1       12        0        0
     11  4.927E+03 1.296E+05 0.000E+00 0.000E+00 0.000E+00    1       12        0        0
     12  1.640E+04 0.000E+00 0.000E+00 0.000E+00 0.000E+00    1       14        0        0
     13  9.053E+03 0.000E+00 0.000E+00 0.000E+00 0.000E+00    1        0       12        0
     14  2.476E+03 0.000E+00 0.000E+00 0.000E+00 0.000E+00    1       15        0        0
     15  5.144E+03 0.000E+00 0.000E+00 0.000E+00 0.000E+00    1       17        0        0
     16  6.863E+03 9.415E+05 0.000E+00 0.000E+00 0.000E+00    1        0       14        0
     17  7.022E+03 0.000E+00 0.000E+00 0.000E+00 0.000E+00    1       18        0        0
     18  3.144E+03 0.000E+00 0.000E+00 0.000E+00 0.000E+00    1       22        0        0
     19  3.580E+03 1.037E+05 0.000E+00 0.000E+00 0.000E+00    1       20       18        0
     20  2.413E+03 0.000E+00 0.000E+00 0.000E+00 0.000E+00    1        0        0        0
     21  2.816E+03 0.000E+00 0.000E+00 0.000E+00 0.000E+00    1       -1        0        0
     22  1.618E+04 0.000E+00 0.000E+00 0.000E+00 0.000E+00    1       23        0        0
     23  1.073E+04 0.000E+00 0.000E+00 0.000E+00 0.000E+00    1        0        0        0
     24  3.924E+03 1.867E+05 0.000E+00 0.000E+00 0.000E+00    1        0       22        0


         STREAMBED PROPERTIES AND STREAM DIMENSIONS

 SEGMENT     BED HYD. COND.      BED THICKNESS     ELEV.-TOP OF BED     WIDTH OF STREAM     DEPTH OF STREAM    STREAM ROUGHNESS
    No.     UPPER     LOWER     UPPER     LOWER     UPPER     LOWER     UPPER     LOWER     UPPER     LOWER   CHANNEL      BANK

     1  5.000E-01 5.000E-01 1.000E+00 1.000E+00 4.716E+03 4.634E+03 1.300E+01 1.300E+01                     3.000E-02
     2  5.000E-01 5.000E-01 1.000E+00 1.000E+00 4.629E+03 4.597E+03 1.300E+01 1.300E+01                     3.000E-02
     3  0.000E+00 0.000E+00 1.000E+00 1.000E+00 4.589E+03 4.564E+03 1.300E+01 1.300E+01                     3.000E-02
     4  1.000E+00 1.000E+00 1.000E+00 1.000E+00 4.591E+03 4.579E+03 9.000E+00 9.000E+00                     3.000E-02
     5  5.000E-01 5.000E-01 1.000E+00 1.000E+00 4.575E+03 4.566E+03 7.000E+00 7.000E+00                     3.000E-02
     6  0.000E+00 0.000E+00 1.000E+00 1.000E+00 4.581E+03 4.547E+03 1.600E+01 1.600E+01                     3.000E-02
     7  1.000E+00 1.000E+00 1.000E+00 1.000E+00 4.545E+03 4.526E+03 1.000E+01 1.000E+01                     3.000E-02
     8  1.000E+00 1.000E+00 1.000E+00 1.000E+00 4.523E+03 4.506E+03 8.000E+00 8.000E+00                     3.000E-02
     9  0.000E+00 0.000E+00 1.000E+00 1.000E+00 4.527E+03 4.510E+03 1.000E+01 1.000E+01                     3.000E-02
    10  1.500E-01 1.500E-01 1.000E+00 1.000E+00 4.634E+03 4.594E+03 1.200E+01 1.200E+01                     3.000E-02
    11  0.000E+00 0.000E+00 1.000E+00 1.000E+00 4.588E+03 4.578E+03 1.000E+01 1.000E+01                     3.000E-02
    12  5.000E-01 5.000E-01 1.000E+00 1.000E+00 4.590E+03 4.526E+03 1.000E+01 1.000E+01                     3.000E-02
    13  0.000E+00 0.000E+00 1.000E+00 1.000E+00 4.529E+03 4.500E+03 1.200E+01 1.200E+01                     3.000E-02
    14  1.000E+00 1.000E+00 1.000E+00 1.000E+00 4.521E+03 4.519E+03 1.000E+01 1.000E+01                     3.000E-02
    15  1.000E+00 1.000E+00 1.000E+00 1.000E+00 4.517E+03 4.505E+03 7.000E+00 7.000E+00                     3.000E-02
    16  0.000E+00 0.000E+00 1.000E+00 1.000E+00 4.516E+03 4.490E+03 1.000E+01 1.000E+01                     3.000E-02
    17  1.000E+00 1.000E+00 1.000E+00 1.000E+00 4.499E+03 4.484E+03 8.000E+00 8.000E+00                     3.000E-02
    18  1.000E+00 1.000E+00 1.000E+00 1.000E+00 4.481E+03 4.477E+03 8.000E+00 8.000E+00                     3.000E-02
    19  0.000E+00 0.000E+00 1.000E+00 1.000E+00 4.480E+03 4.478E+03 1.000E+01 1.000E+01                     3.000E-02
    20  0.000E+00 0.000E+00 1.000E+00 1.000E+00 4.479E+03 4.474E+03 4.000E+00 4.000E+00                     3.000E-02
    21  0.000E+00 0.000E+00 1.000E+00 1.000E+00 4.478E+03 4.475E+03 1.000E+01 1.000E+01                     3.000E-02
    22  5.000E-01 5.000E-01 1.000E+00 1.000E+00 4.476E+03 4.459E+03 1.600E+01 1.600E+01                     3.000E-02
    23  1.000E+00 1.000E+00 1.000E+00 1.000E+00 4.459E+03 4.450E+03 1.800E+01 1.800E+01                     3.000E-02
    24  0.000E+00 0.000E+00 1.000E+00 1.000E+00 4.461E+03 4.453E+03 1.000E+01 1.000E+01                     3.000E-02



 OUTER ITERATION NUMBER:     1
 BACKTRACK COUNT=  0 ACCEPTED RESIDUAL=  0.1750523E+12INCOMING RESIDUAL=  0.1750523E+12IBT=  0
0
     5 ITERATIONS FOR TIME STEP        1 IN STRESS PERIOD       2

 MAXIMUM HEAD CHANGE FOR EACH ITERATION:

    HEAD CHANGE   HEAD CHANGE   HEAD CHANGE   HEAD CHANGE   HEAD CHANGE
  LAYER,ROW,COL LAYER,ROW,COL LAYER,ROW,COL LAYER,ROW,COL LAYER,ROW,COL
 ----------------------------------------------------------------------
      14.92         1.644        0.2099        0.2251E-01   -0.5253E-02
  (  1,  2, 45) (  1, 11, 14) (  1, 11, 14) (  1, 11, 14) (  1, 11, 12)

0OC -- OUTPUT CONTROL PACKAGE INPUT READ FROM UNIT 22

 HEAD/DRAWDOWN PRINTOUT FLAG = 1     TOTAL BUDGET PRINTOUT FLAG = 1
 CELL-BY-CELL FLOW TERM FLAG = 1

 OUTPUT FLAGS FOR ALL LAYERS ARE THE SAME:
   HEAD    DRAWDOWN  HEAD  DRAWDOWN
 PRINTOUT  PRINTOUT  SAVE    SAVE
 ----------------------------------
     0         0       1       1
 UBUDSV SAVING "         STORAGE" ON UNIT    50 AT TIME STEP     1, STRESS PERIOD     2
 UBUDSV SAVING "   CONSTANT HEAD" ON UNIT    50 AT TIME STEP     1, STRESS PERIOD     2
 UBUDSV SAVING "FLOW RIGHT FACE " ON UNIT    50 AT TIME STEP     1, STRESS PERIOD     2
 UBUDSV SAVING "FLOW FRONT FACE " ON UNIT    50 AT TIME STEP     1, STRESS PERIOD     2
 UBUDSV SAVING "           WELLS" ON UNIT    54 AT TIME STEP     1, STRESS PERIOD     2
 UBUDSV SAVING "        RECHARGE" ON UNIT    51 AT TIME STEP     1, STRESS PERIOD     2
 UBUDSV SAVING "              ET" ON UNIT    50 AT TIME STEP     1, STRESS PERIOD     2
 UBUDSV SAVING "  STREAM LEAKAGE" ON UNIT    50 AT TIME STEP     1, STRESS PERIOD     2

 HEAD WILL BE SAVED ON UNIT  30 AT END OF TIME STEP         1, STRESS PERIOD       2

 DRAWDOWN WILL BE SAVED ON UNIT  31 AT END OF TIME STEP         1, STRESS PERIOD       2
1
  VOLUMETRIC BUDGET FOR ENTIRE MODEL AT END OF TIME STEP       1 IN STRESS PERIOD       2
  -----------------------------------------------------------------------------

     CUMULATIVE VOLUMES      L**3       RATES FOR THIS TIME STEP      L**3/T
     ------------------                 ------------------------

           IN:                                      IN:
           ---                                      ---
             STORAGE =   104329304.0000               STORAGE =     1062792.2500
       CONSTANT HEAD =           0.0000         CONSTANT HEAD =           0.0000
               WELLS =           0.0000                 WELLS =           0.0000
              DRAINS =           0.0000                DRAINS =           0.0000
            RECHARGE =   259131904.0000              RECHARGE =     3344547.0000
                  ET =           0.0000                    ET =           0.0000
       RIVER LEAKAGE =    28574718.0000         RIVER LEAKAGE =      108304.1875
     HEAD DEP BOUNDS =           0.0000       HEAD DEP BOUNDS =           0.0000
      STREAM LEAKAGE =   172253568.0000        STREAM LEAKAGE =      660672.3750

            TOTAL IN =   564289494.0000              TOTAL IN =     5176315.8125

          OUT:                                     OUT:
          ----                                     ----
             STORAGE =    64567032.0000               STORAGE =      985641.3125
       CONSTANT HEAD =           0.0000         CONSTANT HEAD =           0.0000
               WELLS =    61900500.0000                 WELLS =     2063350.0000
              DRAINS =           0.0000                DRAINS =           0.0000
            RECHARGE =    66504000.0000              RECHARGE =      277100.0000
                  ET =     7493908.5000                    ET =      249796.9531
       RIVER LEAKAGE =   115244544.0000         RIVER LEAKAGE =      532929.6875
     HEAD DEP BOUNDS =    12041699.0000       HEAD DEP BOUNDS =       50141.6992
      STREAM LEAKAGE =   236343888.0000        STREAM LEAKAGE =     1010580.5625

           TOTAL OUT =   564095571.5000             TOTAL OUT =     5169540.2148

            IN - OUT =      193922.5000              IN - OUT =        6775.5977

 PERCENT DISCREPANCY =           0.03     PERCENT DISCREPANCY =           0.13






          TIME SUMMARY AT END OF TIME STEP         1 IN STRESS PERIOD         2
                    SECONDS       MINUTES        HOURS         DAYS          YEARS
                    -------------------------------------------------------------------
   TIME STEP LENGTH  2592000.      43200.00      720.0000      30.00000     8.2135521E-02
 STRESS PERIOD TIME  2592000.      43200.00      720.0000      30.00000     8.2135521E-02
         TOTAL TIME 2.0736000E+07  345600.0      5760.000      240.0000     0.6570842    
1
 OUTER ITERATION NUMBER:     1
 BACKTRACK COUNT=  0 ACCEPTED RESIDUAL=  0.1125391E+11INCOMING RESIDUAL=  0.1125391E+11IBT=  0
     4 ITERATIONS FOR TIME STEP        2 IN STRESS PERIOD       2

 MAXIMUM HEAD CHANGE FOR EACH ITERATION:

    HEAD CHANGE   HEAD CHANGE   HEAD CHANGE   HEAD CHANGE   HEAD CHANGE
  LAYER,ROW,COL LAYER,ROW,COL LAYER,ROW,COL LAYER,ROW,COL LAYER,ROW,COL
 ----------------------------------------------------------------------
      4.886        0.6203        0.8504E-01    0.9886E-02
  (  1,  2, 45) (  1, 11, 14) (  1, 11, 14) (  1, 11, 14)

0OC -- OUTPUT CONTROL PACKAGE INPUT READ FROM UNIT 22

 HEAD/DRAWDOWN PRINTOUT FLAG = 1     TOTAL BUDGET PRINTOUT FLAG = 1
 CELL-BY-CELL FLOW TERM FLAG = 1

 OUTPUT FLAGS FOR ALL LAYERS ARE THE SAME:
   HEAD    DRAWDOWN  HEAD  DRAWDOWN
 PRINTOUT  PRINTOUT  SAVE    SAVE
 ----------------------------------
     0         0       1       1
 UBUDSV SAVING "         STORAGE" ON UNIT    50 AT TIME STEP     2, STRESS PERIOD     2
 UBUDSV SAVING "   CONSTANT HEAD" ON UNIT    50 AT TIME STEP     2, STRESS PERIOD     2
 UBUDSV SAVING "FLOW RIGHT FACE " ON UNIT    50 AT TIME STEP     2, STRESS PERIOD     2
 UBUDSV SAVING "FLOW FRONT FACE " ON UNIT    50 AT TIME STEP     2, STRESS PERIOD     2
 UBUDSV SAVING "           WELLS" ON UNIT    54 AT TIME STEP     2, STRESS PERIOD     2
 UBUDSV SAVING "        RECHARGE" ON UNIT    51 AT TIME STEP     2, STRESS PERIOD     2
 UBUDSV SAVING "              ET" ON UNIT    50 AT TIME STEP     2, STRESS PERIOD     2
 UBUDSV SAVING "  STREAM LEAKAGE" ON UNIT    50 AT TIME STEP     2, STRESS PERIOD     2

 HEAD WILL BE SAVED ON UNIT  30 AT END OF TIME STEP         2, STRESS PERIOD       2

 DRAWDOWN WILL BE SAVED ON UNIT  31 AT END OF TIME STEP         2, STRESS PERIOD       2
1
  VOLUMETRIC BUDGET FOR ENTIRE MODEL AT END OF TIME STEP       2 IN STRESS PERIOD       2
  -----------------------------------------------------------------------------

     CUMULATIVE VOLUMES      L**3       RATES FOR THIS TIME STEP      L**3/T
     ------------------                 ------------------------

           IN:                                      IN:
           ---                                      ---
             STORAGE =   126029544.0000               STORAGE =      723341.4375
       CONSTANT HEAD =           0.0000         CONSTANT HEAD =           0.0000
               WELLS =           0.0000                 WELLS =           0.0000
              DRAINS =           0.0000                DRAINS =           0.0000
            RECHARGE =   359468320.0000              RECHARGE =     3344547.0000
                  ET =           0.0000                    ET =           0.0000
       RIVER LEAKAGE =    31665272.0000         RIVER LEAKAGE =      103018.4922
     HEAD DEP BOUNDS =           0.0000       HEAD DEP BOUNDS =           0.0000
[...]
              DRAINS =           0.0000                DRAINS =           0.0000
            RECHARGE =   964308864.0000              RECHARGE =      277100.0000
                  ET =   298004000.0000                    ET =      234711.7188
       RIVER LEAKAGE =  1634453888.0000         RIVER LEAKAGE =      463162.4688
     HEAD DEP BOUNDS =   170752320.0000       HEAD DEP BOUNDS =       48918.4023
      STREAM LEAKAGE =  3363896576.0000        STREAM LEAKAGE =      968365.3125

           TOTAL OUT = 10747184480.0000             TOTAL OUT =     5029627.9648

            IN - OUT =     9088928.0000              IN - OUT =        6582.7227

 PERCENT DISCREPANCY =           0.08     PERCENT DISCREPANCY =           0.13






          TIME SUMMARY AT END OF TIME STEP         1 IN STRESS PERIOD        20
                    SECONDS       MINUTES        HOURS         DAYS          YEARS
                    -------------------------------------------------------------------
   TIME STEP LENGTH  2592000.      43200.00      720.0000      30.00000     8.2135521E-02
 STRESS PERIOD TIME  2592000.      43200.00      720.0000      30.00000     8.2135521E-02
         TOTAL TIME 3.0067200E+08  5011200.      83520.00      3480.000      9.527720    
1
 OUTER ITERATION NUMBER:     1
 BACKTRACK COUNT=  0 ACCEPTED RESIDUAL=  0.1072091E+11INCOMING RESIDUAL=  0.1072091E+11IBT=  0
     4 ITERATIONS FOR TIME STEP        2 IN STRESS PERIOD      20

 MAXIMUM HEAD CHANGE FOR EACH ITERATION:

    HEAD CHANGE   HEAD CHANGE   HEAD CHANGE   HEAD CHANGE   HEAD CHANGE
  LAYER,ROW,COL LAYER,ROW,COL LAYER,ROW,COL LAYER,ROW,COL LAYER,ROW,COL
 ----------------------------------------------------------------------
      4.884        0.6195        0.8485E-01    0.9859E-02
  (  1,  2, 45) (  1, 11, 14) (  1, 11, 14) (  1, 11, 14)

0OC -- OUTPUT CONTROL PACKAGE INPUT READ FROM UNIT 22

 HEAD/DRAWDOWN PRINTOUT FLAG = 1     TOTAL BUDGET PRINTOUT FLAG = 1
 CELL-BY-CELL FLOW TERM FLAG = 1

 OUTPUT FLAGS FOR ALL LAYERS ARE THE SAME:
   HEAD    DRAWDOWN  HEAD  DRAWDOWN
 PRINTOUT  PRINTOUT  SAVE    SAVE
 ----------------------------------
     0         0       1       1
 UBUDSV SAVING "         STORAGE" ON UNIT    50 AT TIME STEP     2, STRESS PERIOD    20
 UBUDSV SAVING "   CONSTANT HEAD" ON UNIT    50 AT TIME STEP     2, STRESS PERIOD    20
 UBUDSV SAVING "FLOW RIGHT FACE " ON UNIT    50 AT TIME STEP     2, STRESS PERIOD    20
 UBUDSV SAVING "FLOW FRONT FACE " ON UNIT    50 AT TIME STEP     2, STRESS PERIOD    20
 UBUDSV SAVING "           WELLS" ON UNIT    54 AT TIME STEP     2, STRESS PERIOD    20
 UBUDSV SAVING "        RECHARGE" ON UNIT    51 AT TIME STEP     2, STRESS PERIOD    20
 UBUDSV SAVING "              ET" ON UNIT    50 AT TIME STEP     2, STRESS PERIOD    20
 UBUDSV SAVING "  STREAM LEAKAGE" ON UNIT    50 AT TIME STEP     2, STRESS PERIOD    20

 HEAD WILL BE SAVED ON UNIT  30 AT END OF TIME STEP         2, STRESS PERIOD      20

 DRAWDOWN WILL BE SAVED ON UNIT  31 AT END OF TIME STEP         2, STRESS PERIOD      20
1
  VOLUMETRIC BUDGET FOR ENTIRE MODEL AT END OF TIME STEP       2 IN STRESS PERIOD      20
  -----------------------------------------------------------------------------

     CUMULATIVE VOLUMES      L**3       RATES FOR THIS TIME STEP      L**3/T
     ------------------                 ------------------------

           IN:                                      IN:
           ---                                      ---
             STORAGE =  1683928960.0000               STORAGE =      594079.1875
       CONSTANT HEAD =           0.0000         CONSTANT HEAD =           0.0000
               WELLS =           0.0000                 WELLS =           0.0000
              DRAINS =           0.0000                DRAINS =           0.0000
            RECHARGE =  6303773696.0000              RECHARGE =     3344547.0000
                  ET =           0.0000                    ET =           0.0000
       RIVER LEAKAGE =   400224576.0000         RIVER LEAKAGE =      105166.7266
     HEAD DEP BOUNDS =           0.0000       HEAD DEP BOUNDS =           0.0000
      STREAM LEAKAGE =  2509930752.0000        STREAM LEAKAGE =      675685.9375

            TOTAL IN = 10897857984.0000              TOTAL IN =     4719478.8516

          OUT:                                     OUT:
          ----                                     ----
             STORAGE =  1487809408.0000               STORAGE =      648819.9375
       CONSTANT HEAD =           0.0000         CONSTANT HEAD =           0.0000
               WELLS =  2909324544.0000                 WELLS =     2063350.0000
              DRAINS =           0.0000                DRAINS =           0.0000
            RECHARGE =   972621888.0000              RECHARGE =      277100.0000
                  ET =   304402528.0000                    ET =      213284.4375
       RIVER LEAKAGE =  1649154304.0000         RIVER LEAKAGE =      490015.0312
     HEAD DEP BOUNDS =   172221856.0000       HEAD DEP BOUNDS =       48984.4961
      STREAM LEAKAGE =  3393021184.0000        STREAM LEAKAGE =      970824.0000

           TOTAL OUT = 10888555712.0000             TOTAL OUT =     4712377.9023

            IN - OUT =     9302272.0000              IN - OUT =        7100.9492

 PERCENT DISCREPANCY =           0.09     PERCENT DISCREPANCY =           0.15






          TIME SUMMARY AT END OF TIME STEP         2 IN STRESS PERIOD        20
                    SECONDS       MINUTES        HOURS         DAYS          YEARS
                    -------------------------------------------------------------------
   TIME STEP LENGTH  2592000.      43200.00      720.0000      30.00000     8.2135521E-02
 STRESS PERIOD TIME  5184000.      86400.00      1440.000      60.00000     0.1642710    
         TOTAL TIME 3.0326400E+08  5054400.      84240.00      3510.000      9.609857    
1
 OUTER ITERATION NUMBER:     1
 BACKTRACK COUNT=  0 ACCEPTED RESIDUAL=  0.3164159E+10INCOMING RESIDUAL=  0.3164159E+10IBT=  0
     4 ITERATIONS FOR TIME STEP        3 IN STRESS PERIOD      20

 MAXIMUM HEAD CHANGE FOR EACH ITERATION:

    HEAD CHANGE   HEAD CHANGE   HEAD CHANGE   HEAD CHANGE   HEAD CHANGE
  LAYER,ROW,COL LAYER,ROW,COL LAYER,ROW,COL LAYER,ROW,COL LAYER,ROW,COL
 ----------------------------------------------------------------------
     -2.455        0.2072        0.2891E-01    0.3518E-02
  (  1, 39, 15) (  1, 11, 13) (  1, 11, 14) (  1, 11, 14)

0OC -- OUTPUT CONTROL PACKAGE INPUT READ FROM UNIT 22

 HEAD/DRAWDOWN PRINTOUT FLAG = 1     TOTAL BUDGET PRINTOUT FLAG = 1
 CELL-BY-CELL FLOW TERM FLAG = 1

 OUTPUT FLAGS FOR ALL LAYERS ARE THE SAME:
   HEAD    DRAWDOWN  HEAD  DRAWDOWN
 PRINTOUT  PRINTOUT  SAVE    SAVE
 ----------------------------------
     0         0       1       1
 UBUDSV SAVING "         STORAGE" ON UNIT    50 AT TIME STEP     3, STRESS PERIOD    20
 UBUDSV SAVING "   CONSTANT HEAD" ON UNIT    50 AT TIME STEP     3, STRESS PERIOD    20
 UBUDSV SAVING "FLOW RIGHT FACE " ON UNIT    50 AT TIME STEP     3, STRESS PERIOD    20
 UBUDSV SAVING "FLOW FRONT FACE " ON UNIT    50 AT TIME STEP     3, STRESS PERIOD    20
 UBUDSV SAVING "           WELLS" ON UNIT    54 AT TIME STEP     3, STRESS PERIOD    20
 UBUDSV SAVING "        RECHARGE" ON UNIT    51 AT TIME STEP     3, STRESS PERIOD    20
 UBUDSV SAVING "              ET" ON UNIT    50 AT TIME STEP     3, STRESS PERIOD    20
 UBUDSV SAVING "  STREAM LEAKAGE" ON UNIT    50 AT TIME STEP     3, STRESS PERIOD    20

 HEAD WILL BE SAVED ON UNIT  30 AT END OF TIME STEP         3, STRESS PERIOD      20

 DRAWDOWN WILL BE SAVED ON UNIT  31 AT END OF TIME STEP         3, STRESS PERIOD      20
1
  VOLUMETRIC BUDGET FOR ENTIRE MODEL AT END OF TIME STEP       3 IN STRESS PERIOD      20
  -----------------------------------------------------------------------------

     CUMULATIVE VOLUMES      L**3       RATES FOR THIS TIME STEP      L**3/T
     ------------------                 ------------------------

           IN:                                      IN:
           ---                                      ---
             STORAGE =  1696982528.0000               STORAGE =      435119.5625
       CONSTANT HEAD =           0.0000         CONSTANT HEAD =           0.0000
               WELLS =           0.0000                 WELLS =           0.0000
              DRAINS =           0.0000                DRAINS =           0.0000
            RECHARGE =  6404110336.0000              RECHARGE =     3344547.0000
                  ET =           0.0000                    ET =           0.0000
       RIVER LEAKAGE =   403306304.0000         RIVER LEAKAGE =      102724.6719
     HEAD DEP BOUNDS =           0.0000       HEAD DEP BOUNDS =           0.0000
      STREAM LEAKAGE =  2530658048.0000        STREAM LEAKAGE =      690908.9375

            TOTAL IN = 11035057216.0000              TOTAL IN =     4573300.1719

          OUT:                                     OUT:
          ----                                     ----
             STORAGE =  1502273664.0000               STORAGE =      482139.7812
       CONSTANT HEAD =           0.0000         CONSTANT HEAD =           0.0000
               WELLS =  2971225088.0000                 WELLS =     2063350.0000
              DRAINS =           0.0000                DRAINS =           0.0000
            RECHARGE =   980934912.0000              RECHARGE =      277100.0000
                  ET =   310603392.0000                    ET =      206695.8594
       RIVER LEAKAGE =  1664324608.0000         RIVER LEAKAGE =      505675.2500
     HEAD DEP BOUNDS =   173692128.0000       HEAD DEP BOUNDS =       49009.0156
      STREAM LEAKAGE =  3422489856.0000        STREAM LEAKAGE =      982292.0000

           TOTAL OUT = 11025543648.0000             TOTAL OUT =     4566261.9062

            IN - OUT =     9513568.0000              IN - OUT =        7038.2656

 PERCENT DISCREPANCY =           0.09     PERCENT DISCREPANCY =           0.15






          TIME SUMMARY AT END OF TIME STEP         3 IN STRESS PERIOD        20
                    SECONDS       MINUTES        HOURS         DAYS          YEARS
                    -------------------------------------------------------------------
   TIME STEP LENGTH  2592000.      43200.00      720.0000      30.00000     8.2135521E-02
 STRESS PERIOD TIME  7776000.      129600.0      2160.000      90.00000     0.2464066    
         TOTAL TIME 3.0585600E+08  5097600.      84960.00      3540.000      9.691992    
1
 OUTER ITERATION NUMBER:     1
 BACKTRACK COUNT=  0 ACCEPTED RESIDUAL=  0.1321949E+10INCOMING RESIDUAL=  0.1321949E+10IBT=  0
     4 ITERATIONS FOR TIME STEP        4 IN STRESS PERIOD      20

 MAXIMUM HEAD CHANGE FOR EACH ITERATION:

    HEAD CHANGE   HEAD CHANGE   HEAD CHANGE   HEAD CHANGE   HEAD CHANGE
  LAYER,ROW,COL LAYER,ROW,COL LAYER,ROW,COL LAYER,ROW,COL LAYER,ROW,COL
 ----------------------------------------------------------------------
     -1.423       -0.1537       -0.1744E-01   -0.2006E-02
  (  1, 39, 15) (  1, 40,  6) (  1, 40,  6) (  1, 40,  6)

0OC -- OUTPUT CONTROL PACKAGE INPUT READ FROM UNIT 22

 HEAD/DRAWDOWN PRINTOUT FLAG = 1     TOTAL BUDGET PRINTOUT FLAG = 1
 CELL-BY-CELL FLOW TERM FLAG = 1

 OUTPUT FLAGS FOR ALL LAYERS ARE THE SAME:
   HEAD    DRAWDOWN  HEAD  DRAWDOWN
 PRINTOUT  PRINTOUT  SAVE    SAVE
 ----------------------------------
     0         0       1       1
 UBUDSV SAVING "         STORAGE" ON UNIT    50 AT TIME STEP     4, STRESS PERIOD    20
 UBUDSV SAVING "   CONSTANT HEAD" ON UNIT    50 AT TIME STEP     4, STRESS PERIOD    20
 UBUDSV SAVING "FLOW RIGHT FACE " ON UNIT    50 AT TIME STEP     4, STRESS PERIOD    20
 UBUDSV SAVING "FLOW FRONT FACE " ON UNIT    50 AT TIME STEP     4, STRESS PERIOD    20
 UBUDSV SAVING "           WELLS" ON UNIT    54 AT TIME STEP     4, STRESS PERIOD    20
 UBUDSV SAVING "        RECHARGE" ON UNIT    51 AT TIME STEP     4, STRESS PERIOD    20
 UBUDSV SAVING "              ET" ON UNIT    50 AT TIME STEP     4, STRESS PERIOD    20
 UBUDSV SAVING "  STREAM LEAKAGE" ON UNIT    50 AT TIME STEP     4, STRESS PERIOD    20

 HEAD WILL BE SAVED ON UNIT  30 AT END OF TIME STEP         4, STRESS PERIOD      20

 DRAWDOWN WILL BE SAVED ON UNIT  31 AT END OF TIME STEP         4, STRESS PERIOD      20
1
  VOLUMETRIC BUDGET FOR ENTIRE MODEL AT END OF TIME STEP       4 IN STRESS PERIOD      20
  -----------------------------------------------------------------------------

     CUMULATIVE VOLUMES      L**3       RATES FOR THIS TIME STEP      L**3/T
     ------------------                 ------------------------

           IN:                                      IN:
           ---                                      ---
             STORAGE =  1707195392.0000               STORAGE =      340427.5000
       CONSTANT HEAD =           0.0000         CONSTANT HEAD =           0.0000
               WELLS =           0.0000                 WELLS =           0.0000
              DRAINS =           0.0000                DRAINS =           0.0000
            RECHARGE =  6504446976.0000              RECHARGE =     3344547.0000
                  ET =           0.0000                    ET =           0.0000
       RIVER LEAKAGE =   406348000.0000         RIVER LEAKAGE =      101389.6328
     HEAD DEP BOUNDS =           0.0000       HEAD DEP BOUNDS =           0.0000
      STREAM LEAKAGE =  2551567104.0000        STREAM LEAKAGE =      696964.4375

            TOTAL IN = 11169557472.0000              TOTAL IN =     4483328.5703

          OUT:                                     OUT:
          ----                                     ----
             STORAGE =  1513557248.0000               STORAGE =      376119.3125
       CONSTANT HEAD =           0.0000         CONSTANT HEAD =           0.0000
               WELLS =  3033125632.0000                 WELLS =     2063350.0000
              DRAINS =           0.0000                DRAINS =           0.0000
            RECHARGE =   989247936.0000              RECHARGE =      277100.0000
                  ET =   316761920.0000                    ET =      205283.9219
       RIVER LEAKAGE =  1679714688.0000         RIVER LEAKAGE =      513001.5000
     HEAD DEP BOUNDS =   175162400.0000       HEAD DEP BOUNDS =       49008.8555
      STREAM LEAKAGE =  3452259584.0000        STREAM LEAKAGE =      992323.6250

           TOTAL OUT = 11159829408.0000             TOTAL OUT =     4476187.2148

            IN - OUT =     9728064.0000              IN - OUT =        7141.3555

 PERCENT DISCREPANCY =           0.09     PERCENT DISCREPANCY =           0.16






          TIME SUMMARY AT END OF TIME STEP         4 IN STRESS PERIOD        20
                    SECONDS       MINUTES        HOURS         DAYS          YEARS
                    -------------------------------------------------------------------
   TIME STEP LENGTH  2592000.      43200.00      720.0000      30.00000     8.2135521E-02
 STRESS PERIOD TIME 1.0368000E+07  172800.0      2880.000      120.0000     0.3285421    
         TOTAL TIME 3.0844800E+08  5140800.      85680.00      3570.000      9.774127    
1
 OUTER ITERATION NUMBER:     1
 BACKTRACK COUNT=  0 ACCEPTED RESIDUAL=  0.6584151E+09INCOMING RESIDUAL=  0.6584151E+09IBT=  0
     4 ITERATIONS FOR TIME STEP        5 IN STRESS PERIOD      20

 MAXIMUM HEAD CHANGE FOR EACH ITERATION:

    HEAD CHANGE   HEAD CHANGE   HEAD CHANGE   HEAD CHANGE   HEAD CHANGE
  LAYER,ROW,COL LAYER,ROW,COL LAYER,ROW,COL LAYER,ROW,COL LAYER,ROW,COL
 ----------------------------------------------------------------------
    -0.9129       -0.1179       -0.1472E-01   -0.1850E-02
  (  1, 40,  6) (  1, 40,  6) (  1, 40,  6) (  1, 40,  6)

0OC -- OUTPUT CONTROL PACKAGE INPUT READ FROM UNIT 22

 HEAD/DRAWDOWN PRINTOUT FLAG = 1     TOTAL BUDGET PRINTOUT FLAG = 1
 CELL-BY-CELL FLOW TERM FLAG = 1

 OUTPUT FLAGS FOR ALL LAYERS ARE THE SAME:
   HEAD    DRAWDOWN  HEAD  DRAWDOWN
 PRINTOUT  PRINTOUT  SAVE    SAVE
 ----------------------------------
     0         0       1       1
 UBUDSV SAVING "         STORAGE" ON UNIT    50 AT TIME STEP     5, STRESS PERIOD    20
 UBUDSV SAVING "   CONSTANT HEAD" ON UNIT    50 AT TIME STEP     5, STRESS PERIOD    20
 UBUDSV SAVING "FLOW RIGHT FACE " ON UNIT    50 AT TIME STEP     5, STRESS PERIOD    20
 UBUDSV SAVING "FLOW FRONT FACE " ON UNIT    50 AT TIME STEP     5, STRESS PERIOD    20
 UBUDSV SAVING "           WELLS" ON UNIT    54 AT TIME STEP     5, STRESS PERIOD    20
 UBUDSV SAVING "        RECHARGE" ON UNIT    51 AT TIME STEP     5, STRESS PERIOD    20
 UBUDSV SAVING "              ET" ON UNIT    50 AT TIME STEP     5, STRESS PERIOD    20
 UBUDSV SAVING "  STREAM LEAKAGE" ON UNIT    50 AT TIME STEP     5, STRESS PERIOD    20

 HEAD WILL BE SAVED ON UNIT  30 AT END OF TIME STEP         5, STRESS PERIOD      20

 DRAWDOWN WILL BE SAVED ON UNIT  31 AT END OF TIME STEP         5, STRESS PERIOD      20
1
  VOLUMETRIC BUDGET FOR ENTIRE MODEL AT END OF TIME STEP       5 IN STRESS PERIOD      20
  -----------------------------------------------------------------------------

     CUMULATIVE VOLUMES      L**3       RATES FOR THIS TIME STEP      L**3/T
     ------------------                 ------------------------

           IN:                                      IN:
           ---                                      ---
             STORAGE =  1715557376.0000               STORAGE =      278733.3750
       CONSTANT HEAD =           0.0000         CONSTANT HEAD =           0.0000
               WELLS =           0.0000                 WELLS =           0.0000
              DRAINS =           0.0000                DRAINS =           0.0000
            RECHARGE =  6604783616.0000              RECHARGE =     3344547.0000
                  ET =           0.0000                    ET =           0.0000
       RIVER LEAKAGE =   409367680.0000         RIVER LEAKAGE =      100656.2891
     HEAD DEP BOUNDS =           0.0000       HEAD DEP BOUNDS =           0.0000
      STREAM LEAKAGE =  2572569344.0000        STREAM LEAKAGE =      700071.7500

            TOTAL IN = 11302278016.0000              TOTAL IN =     4424008.4141

          OUT:                                     OUT:
          ----                                     ----
             STORAGE =  1522754944.0000               STORAGE =      306590.3438
       CONSTANT HEAD =           0.0000         CONSTANT HEAD =           0.0000
               WELLS =  3095026176.0000                 WELLS =     2063350.0000
              DRAINS =           0.0000                DRAINS =           0.0000
            RECHARGE =   997560960.0000              RECHARGE =      277100.0000
                  ET =   322927808.0000                    ET =      205530.1250
       RIVER LEAKAGE =  1695194752.0000         RIVER LEAKAGE =      516003.1250
     HEAD DEP BOUNDS =   176632304.0000       HEAD DEP BOUNDS =       48997.0234
      STREAM LEAKAGE =  3482238464.0000        STREAM LEAKAGE =      999297.9375

           TOTAL OUT = 11292335408.0000             TOTAL OUT =     4416868.5547

            IN - OUT =     9942608.0000              IN - OUT =        7139.8594

 PERCENT DISCREPANCY =           0.09     PERCENT DISCREPANCY =           0.16






          TIME SUMMARY AT END OF TIME STEP         5 IN STRESS PERIOD        20
                    SECONDS       MINUTES        HOURS         DAYS          YEARS
                    -------------------------------------------------------------------
   TIME STEP LENGTH  2592000.      43200.00      720.0000      30.00000     8.2135521E-02
 STRESS PERIOD TIME 1.2960000E+07  216000.0      3600.000      150.0000     0.4106776    
         TOTAL TIME 3.1104000E+08  5184000.      86400.00      3600.000      9.856263    
1


          ******* SIMULATION TIME =  4.67188    SECS *******


                    ********** END OF SIMULATION **********
